version 2
run General-2-20150713-18:45:53-59964
attr configname General
attr datetime 20150713-18:45:53
attr experiment General
attr inifile omnetpp.ini
attr iterationvars "$0=30, $1=1"
attr iterationvars2 "$0=30, $1=1, $repetition=2"
attr measurement "$0=30, $1=1"
attr network SemiDecentralized
attr processid 59964
attr repetition 2
attr replication #2
attr resultdir StaticThirtySourceDest
attr runnumber 2
attr seedset 2

scalar SemiDecentralized.host[0].wlan[0].mac 	"number of receiveunsigned d packets" 	171
scalar SemiDecentralized.host[0].wlan[0].mac 	"number of collisions" 	37
scalar SemiDecentralized.host[0].wlan[0].mac 	"number of internal collisions" 	0
scalar SemiDecentralized.host[0].wlan[0].mac 	"number of retry for AC 0" 	2
scalar SemiDecentralized.host[0].wlan[0].mac 	"sent and received bits" 	851904
scalar SemiDecentralized.host[0].wlan[0].mac 	"sent packet within AC 0" 	128
scalar SemiDecentralized.host[0].wlan[0].mac 	"sent in TXOP " 	0
scalar SemiDecentralized.host[0].wlan[0].mac 	"sentWithoutRetry AC 0" 	127
scalar SemiDecentralized.host[0].wlan[0].mac 	"numGivenUp AC 0" 	0
scalar SemiDecentralized.host[0].wlan[0].mac 	"numDropped AC 0" 	0
scalar SemiDecentralized.host[0].wlan[0].radio 	lossRate:min 	0
attr interpolationmode  backward-sample-hold
attr title  "packet loss rate, min"
scalar SemiDecentralized.host[0].wlan[0].radio 	lossRate:max 	0.06
attr interpolationmode  backward-sample-hold
attr title  "packet loss rate, max"
scalar SemiDecentralized.host[0].wlan[0].radio 	lossRate:timeavg 	0.0045807670493052
attr interpolationmode  backward-sample-hold
attr title  "packet loss rate, timeavg"
statistic SemiDecentralized.host[0].wlan[0].radio 	channelNo:histogram
field count 1
field mean 0
field stddev -nan
field sum 0
field sqrsum 0
field min 0
field max 0
attr interpolationmode  sample-hold
attr title  "channel no, histogram"
bin	-INF	0
bin	-0.5	0
bin	-0.46666666666667	0
bin	-0.43333333333333	0
bin	-0.4	0
bin	-0.36666666666667	0
bin	-0.33333333333333	0
bin	-0.3	0
bin	-0.26666666666667	0
bin	-0.23333333333333	0
bin	-0.2	0
bin	-0.16666666666667	0
bin	-0.13333333333333	0
bin	-0.1	0
bin	-0.066666666666667	0
bin	-0.033333333333333	0
bin	0	1
bin	0.033333333333333	0
bin	0.066666666666667	0
bin	0.1	0
bin	0.13333333333333	0
bin	0.16666666666667	0
bin	0.2	0
bin	0.23333333333333	0
bin	0.26666666666667	0
bin	0.3	0
bin	0.33333333333333	0
bin	0.36666666666667	0
bin	0.4	0
bin	0.43333333333333	0
bin	0.46666666666667	0
bin	0.5	0
scalar SemiDecentralized.host[0].wlan[0].radio 	bitrate:min 	54000000
attr interpolationmode  sample-hold
attr title  "tx bitrate, min"
attr unit  bps
scalar SemiDecentralized.host[0].wlan[0].radio 	bitrate:max 	54000000
attr interpolationmode  sample-hold
attr title  "tx bitrate, max"
attr unit  bps
scalar SemiDecentralized.host[0].wlan[0].radio 	bitrate:timeavg 	54000000
attr interpolationmode  sample-hold
attr title  "tx bitrate, timeavg"
attr unit  bps
statistic SemiDecentralized.host[0].udpApp[0] 	endToEndDelay:histogram
field count 30
field mean 0.0053726444910667
field stddev 0.0015320252684276
field sum 0.161179334732
field sqrsum 0.00093402520609159
field min 0.002607596292
field max 0.008333213577
attr interpolationmode  none
attr source  messageAge(rcvdPk)
attr title  "end-to-end delay, histogram"
attr unit  s
bin	-INF	0
bin	-0.0002552123505	0
bin	0.0001264954685	0
bin	0.0005082032875	0
bin	0.0008899111065	0
bin	0.0012716189255	0
bin	0.0016533267445	0
bin	0.0020350345635	0
bin	0.0024167423825	2
bin	0.0027984502015	1
bin	0.0031801580205	1
bin	0.0035618658395	2
bin	0.0039435736585	2
bin	0.0043252814775	1
bin	0.0047069892965	4
bin	0.0050886971155	3
bin	0.0054704049345	2
bin	0.0058521127535	3
bin	0.0062338205725	1
bin	0.0066155283915	3
bin	0.0069972362105	2
bin	0.0073789440295	2
bin	0.0077606518485	0
bin	0.0081423596675	1
bin	0.0085240674865	0
bin	0.0089057753055	0
bin	0.0092874831245	0
bin	0.0096691909435	0
bin	0.0100508987625	0
bin	0.0104326065815	0
bin	0.0108143144005	0
bin	0.0111960222195	0
scalar SemiDecentralized.host[0].udp 	droppedPkBadChecksum:count 	0
attr interpolationmode  none
attr title  "packets dropped (checksum error), count"
scalar SemiDecentralized.host[0].udp 	droppedPkWrongPort:count 	0
attr interpolationmode  none
attr title  "packets dropped (wrong port), count"
scalar SemiDecentralized.host[0].udp 	passedUpPk:count 	30
attr interpolationmode  none
attr title  "packets passed up, count"
scalar SemiDecentralized.host[0].udp 	rcvdPk:count 	30
attr interpolationmode  none
attr source  rcvdPk
attr title  "packets received, count"
scalar SemiDecentralized.host[0].udp 	rcvdPk:sum(packetBytes) 	15600
attr interpolationmode  none
attr source  rcvdPk
attr title  "packets received, sum(packetBytes)"
scalar SemiDecentralized.host[0].udp 	sentPk:count 	0
attr interpolationmode  none
attr source  sentPk
attr title  "packets sent, count"
scalar SemiDecentralized.host[0].udp 	sentPk:sum(packetBytes) 	0
attr interpolationmode  none
attr source  sentPk
attr title  "packets sent, sum(packetBytes)"
statistic SemiDecentralized.host[0].aodv 	NumSentAODVPackets
field count 140
field mean 70.5
field stddev 40.558599581346
field sum 9870
field sqrsum 924490
field min 1
field max 140
statistic SemiDecentralized.host[0].aodv 	NumReceivedAODVPackets
field count 0
field mean -nan
field stddev -nan
field sum 0
field sqrsum 0
field min -nan
field max -nan
scalar SemiDecentralized.host[0].aodv 	"Number of LinkBreaks" 	0
scalar SemiDecentralized.host[0].aodv 	RERRSentNow 	0
scalar SemiDecentralized.host[0].rsmgmnt 	"Number Received RouteResponses" 	0
scalar SemiDecentralized.host[0].rsmgmnt 	"Number Sent RREQs" 	0
scalar SemiDecentralized.host[1].wlan[0].mac 	"number of receiveunsigned d packets" 	0
scalar SemiDecentralized.host[1].wlan[0].mac 	"number of collisions" 	46
scalar SemiDecentralized.host[1].wlan[0].mac 	"number of internal collisions" 	0
scalar SemiDecentralized.host[1].wlan[0].mac 	"number of retry for AC 0" 	1
scalar SemiDecentralized.host[1].wlan[0].mac 	"sent and received bits" 	393632
scalar SemiDecentralized.host[1].wlan[0].mac 	"sent packet within AC 0" 	30
scalar SemiDecentralized.host[1].wlan[0].mac 	"sent in TXOP " 	0
scalar SemiDecentralized.host[1].wlan[0].mac 	"sentWithoutRetry AC 0" 	29
scalar SemiDecentralized.host[1].wlan[0].mac 	"numGivenUp AC 0" 	0
scalar SemiDecentralized.host[1].wlan[0].mac 	"numDropped AC 0" 	0
scalar SemiDecentralized.host[1].wlan[0].radio 	lossRate:min 	0
attr interpolationmode  backward-sample-hold
attr title  "packet loss rate, min"
scalar SemiDecentralized.host[1].wlan[0].radio 	lossRate:max 	0.06
attr interpolationmode  backward-sample-hold
attr title  "packet loss rate, max"
scalar SemiDecentralized.host[1].wlan[0].radio 	lossRate:timeavg 	0.0060030442744152
attr interpolationmode  backward-sample-hold
attr title  "packet loss rate, timeavg"
statistic SemiDecentralized.host[1].wlan[0].radio 	channelNo:histogram
field count 1
field mean 0
field stddev -nan
field sum 0
field sqrsum 0
field min 0
field max 0
attr interpolationmode  sample-hold
attr title  "channel no, histogram"
bin	-INF	0
bin	-0.5	0
bin	-0.46666666666667	0
bin	-0.43333333333333	0
bin	-0.4	0
bin	-0.36666666666667	0
bin	-0.33333333333333	0
bin	-0.3	0
bin	-0.26666666666667	0
bin	-0.23333333333333	0
bin	-0.2	0
bin	-0.16666666666667	0
bin	-0.13333333333333	0
bin	-0.1	0
bin	-0.066666666666667	0
bin	-0.033333333333333	0
bin	0	1
bin	0.033333333333333	0
bin	0.066666666666667	0
bin	0.1	0
bin	0.13333333333333	0
bin	0.16666666666667	0
bin	0.2	0
bin	0.23333333333333	0
bin	0.26666666666667	0
bin	0.3	0
bin	0.33333333333333	0
bin	0.36666666666667	0
bin	0.4	0
bin	0.43333333333333	0
bin	0.46666666666667	0
bin	0.5	0
scalar SemiDecentralized.host[1].wlan[0].radio 	bitrate:min 	54000000
attr interpolationmode  sample-hold
attr title  "tx bitrate, min"
attr unit  bps
scalar SemiDecentralized.host[1].wlan[0].radio 	bitrate:max 	54000000
attr interpolationmode  sample-hold
attr title  "tx bitrate, max"
attr unit  bps
scalar SemiDecentralized.host[1].wlan[0].radio 	bitrate:timeavg 	54000000
attr interpolationmode  sample-hold
attr title  "tx bitrate, timeavg"
attr unit  bps
scalar SemiDecentralized.host[1].udpApp[0] 	"packets sent" 	30
scalar SemiDecentralized.host[1].udpApp[0] 	"packets received" 	0
statistic SemiDecentralized.host[1].udpApp[0] 	rcvdPkLifetime:stats
field count 0
field mean -nan
field stddev -nan
field sum 0
field sqrsum 0
field min -nan
field max -nan
attr interpolationmode  none
attr source  messageAge(rcvdPk)
attr title  "received packet lifetime, stats"
attr unit  s
scalar SemiDecentralized.host[1].udp 	droppedPkBadChecksum:count 	0
attr interpolationmode  none
attr title  "packets dropped (checksum error), count"
scalar SemiDecentralized.host[1].udp 	droppedPkWrongPort:count 	0
attr interpolationmode  none
attr title  "packets dropped (wrong port), count"
scalar SemiDecentralized.host[1].udp 	passedUpPk:count 	0
attr interpolationmode  none
attr title  "packets passed up, count"
scalar SemiDecentralized.host[1].udp 	rcvdPk:count 	0
attr interpolationmode  none
attr source  rcvdPk
attr title  "packets received, count"
scalar SemiDecentralized.host[1].udp 	rcvdPk:sum(packetBytes) 	0
attr interpolationmode  none
attr source  rcvdPk
attr title  "packets received, sum(packetBytes)"
scalar SemiDecentralized.host[1].udp 	sentPk:count 	30
attr interpolationmode  none
attr source  sentPk
attr title  "packets sent, count"
scalar SemiDecentralized.host[1].udp 	sentPk:sum(packetBytes) 	15600
attr interpolationmode  none
attr source  sentPk
attr title  "packets sent, sum(packetBytes)"
statistic SemiDecentralized.host[1].aodv 	NumSentAODVPackets
field count 30
field mean 15.5
field stddev 8.8034084308295
field sum 465
field sqrsum 9455
field min 1
field max 30
statistic SemiDecentralized.host[1].aodv 	NumReceivedAODVPackets
field count 30
field mean 15.5
field stddev 8.8034084308295
field sum 465
field sqrsum 9455
field min 1
field max 30
scalar SemiDecentralized.host[1].aodv 	"Number of LinkBreaks" 	0
scalar SemiDecentralized.host[1].aodv 	RERRSentNow 	0
scalar SemiDecentralized.host[1].rsmgmnt 	"Number Received RouteResponses" 	30
scalar SemiDecentralized.host[1].rsmgmnt 	"Number Sent RREQs" 	30
scalar SemiDecentralized.host[2].wlan[0].mac 	"number of receiveunsigned d packets" 	31
scalar SemiDecentralized.host[2].wlan[0].mac 	"number of collisions" 	21
scalar SemiDecentralized.host[2].wlan[0].mac 	"number of internal collisions" 	0
scalar SemiDecentralized.host[2].wlan[0].mac 	"number of retry for AC 0" 	2
scalar SemiDecentralized.host[2].wlan[0].mac 	"sent and received bits" 	311808
scalar SemiDecentralized.host[2].wlan[0].mac 	"sent packet within AC 0" 	12
scalar SemiDecentralized.host[2].wlan[0].mac 	"sent in TXOP " 	0
scalar SemiDecentralized.host[2].wlan[0].mac 	"sentWithoutRetry AC 0" 	11
scalar SemiDecentralized.host[2].wlan[0].mac 	"numGivenUp AC 0" 	0
scalar SemiDecentralized.host[2].wlan[0].mac 	"numDropped AC 0" 	0
scalar SemiDecentralized.host[2].wlan[0].radio 	lossRate:min 	0
attr interpolationmode  backward-sample-hold
attr title  "packet loss rate, min"
scalar SemiDecentralized.host[2].wlan[0].radio 	lossRate:max 	0.04
attr interpolationmode  backward-sample-hold
attr title  "packet loss rate, max"
scalar SemiDecentralized.host[2].wlan[0].radio 	lossRate:timeavg 	0.0030175629206867
attr interpolationmode  backward-sample-hold
attr title  "packet loss rate, timeavg"
statistic SemiDecentralized.host[2].wlan[0].radio 	channelNo:histogram
field count 1
field mean 0
field stddev -nan
field sum 0
field sqrsum 0
field min 0
field max 0
attr interpolationmode  sample-hold
attr title  "channel no, histogram"
bin	-INF	0
bin	-0.5	0
bin	-0.46666666666667	0
bin	-0.43333333333333	0
bin	-0.4	0
bin	-0.36666666666667	0
bin	-0.33333333333333	0
bin	-0.3	0
bin	-0.26666666666667	0
bin	-0.23333333333333	0
bin	-0.2	0
bin	-0.16666666666667	0
bin	-0.13333333333333	0
bin	-0.1	0
bin	-0.066666666666667	0
bin	-0.033333333333333	0
bin	0	1
bin	0.033333333333333	0
bin	0.066666666666667	0
bin	0.1	0
bin	0.13333333333333	0
bin	0.16666666666667	0
bin	0.2	0
bin	0.23333333333333	0
bin	0.26666666666667	0
bin	0.3	0
bin	0.33333333333333	0
bin	0.36666666666667	0
bin	0.4	0
bin	0.43333333333333	0
bin	0.46666666666667	0
bin	0.5	0
scalar SemiDecentralized.host[2].wlan[0].radio 	bitrate:min 	54000000
attr interpolationmode  sample-hold
attr title  "tx bitrate, min"
attr unit  bps
scalar SemiDecentralized.host[2].wlan[0].radio 	bitrate:max 	54000000
attr interpolationmode  sample-hold
attr title  "tx bitrate, max"
attr unit  bps
scalar SemiDecentralized.host[2].wlan[0].radio 	bitrate:timeavg 	54000000
attr interpolationmode  sample-hold
attr title  "tx bitrate, timeavg"
attr unit  bps
statistic SemiDecentralized.host[2].udpApp[0] 	endToEndDelay:histogram
field count 19
field mean 0.0043084005043158
field stddev 0.0012308002919011
field sum 0.081859609582
field sqrsum 0.00037995163165997
field min 0.002325346153
field max 0.007090620585
attr interpolationmode  none
attr source  messageAge(rcvdPk)
attr title  "end-to-end delay, histogram"
attr unit  s
bin	-INF	0
bin	-5.7291063e-05	0
bin	0.00026039389913333	0
bin	0.00057807886126667	0
bin	0.0008957638234	0
bin	0.0012134487855333	0
bin	0.0015311337476667	0
bin	0.0018488187098	0
bin	0.0021665036719333	1
bin	0.0024841886340667	1
bin	0.0028018735962	0
bin	0.0031195585583333	2
bin	0.0034372435204667	5
bin	0.0037549284826	1
bin	0.0040726134447333	1
bin	0.0043902984068667	1
bin	0.004707983369	1
bin	0.0050256683311333	3
bin	0.0053433532932667	0
bin	0.0056610382554	2
bin	0.0059787232175333	0
bin	0.0062964081796667	0
bin	0.0066140931418	0
bin	0.0069317781039333	1
bin	0.0072494630660667	0
bin	0.0075671480282	0
bin	0.0078848329903333	0
bin	0.0082025179524667	0
bin	0.0085202029146	0
bin	0.0088378878767333	0
bin	0.0091555728388667	0
bin	0.009473257801	0
scalar SemiDecentralized.host[2].udp 	droppedPkBadChecksum:count 	0
attr interpolationmode  none
attr title  "packets dropped (checksum error), count"
scalar SemiDecentralized.host[2].udp 	droppedPkWrongPort:count 	0
attr interpolationmode  none
attr title  "packets dropped (wrong port), count"
scalar SemiDecentralized.host[2].udp 	passedUpPk:count 	19
attr interpolationmode  none
attr title  "packets passed up, count"
scalar SemiDecentralized.host[2].udp 	rcvdPk:count 	19
attr interpolationmode  none
attr source  rcvdPk
attr title  "packets received, count"
scalar SemiDecentralized.host[2].udp 	rcvdPk:sum(packetBytes) 	9880
attr interpolationmode  none
attr source  rcvdPk
attr title  "packets received, sum(packetBytes)"
scalar SemiDecentralized.host[2].udp 	sentPk:count 	0
attr interpolationmode  none
attr source  sentPk
attr title  "packets sent, count"
scalar SemiDecentralized.host[2].udp 	sentPk:sum(packetBytes) 	0
attr interpolationmode  none
attr source  sentPk
attr title  "packets sent, sum(packetBytes)"
statistic SemiDecentralized.host[2].aodv 	NumSentAODVPackets
field count 12
field mean 6.5
field stddev 3.605551275464
field sum 78
field sqrsum 650
field min 1
field max 12
statistic SemiDecentralized.host[2].aodv 	NumReceivedAODVPackets
field count 3
field mean 2
field stddev 1
field sum 6
field sqrsum 14
field min 1
field max 3
scalar SemiDecentralized.host[2].aodv 	"Number of LinkBreaks" 	0
scalar SemiDecentralized.host[2].aodv 	RERRSentNow 	3
scalar SemiDecentralized.host[2].rsmgmnt 	"Number Received RouteResponses" 	3
scalar SemiDecentralized.host[2].rsmgmnt 	"Number Sent RREQs" 	3
scalar SemiDecentralized.host[3].wlan[0].mac 	"number of receiveunsigned d packets" 	34
scalar SemiDecentralized.host[3].wlan[0].mac 	"number of collisions" 	101
scalar SemiDecentralized.host[3].wlan[0].mac 	"number of internal collisions" 	0
scalar SemiDecentralized.host[3].wlan[0].mac 	"number of retry for AC 0" 	3
scalar SemiDecentralized.host[3].wlan[0].mac 	"sent and received bits" 	553424
scalar SemiDecentralized.host[3].wlan[0].mac 	"sent packet within AC 0" 	64
scalar SemiDecentralized.host[3].wlan[0].mac 	"sent in TXOP " 	0
scalar SemiDecentralized.host[3].wlan[0].mac 	"sentWithoutRetry AC 0" 	61
scalar SemiDecentralized.host[3].wlan[0].mac 	"numGivenUp AC 0" 	0
scalar SemiDecentralized.host[3].wlan[0].mac 	"numDropped AC 0" 	0
scalar SemiDecentralized.host[3].wlan[0].radio 	lossRate:min 	0
attr interpolationmode  backward-sample-hold
attr title  "packet loss rate, min"
scalar SemiDecentralized.host[3].wlan[0].radio 	lossRate:max 	0.1
attr interpolationmode  backward-sample-hold
attr title  "packet loss rate, max"
scalar SemiDecentralized.host[3].wlan[0].radio 	lossRate:timeavg 	0.0086877971795337
attr interpolationmode  backward-sample-hold
attr title  "packet loss rate, timeavg"
statistic SemiDecentralized.host[3].wlan[0].radio 	channelNo:histogram
field count 1
field mean 0
field stddev -nan
field sum 0
field sqrsum 0
field min 0
field max 0
attr interpolationmode  sample-hold
attr title  "channel no, histogram"
bin	-INF	0
bin	-0.5	0
bin	-0.46666666666667	0
bin	-0.43333333333333	0
bin	-0.4	0
bin	-0.36666666666667	0
bin	-0.33333333333333	0
bin	-0.3	0
bin	-0.26666666666667	0
bin	-0.23333333333333	0
bin	-0.2	0
bin	-0.16666666666667	0
bin	-0.13333333333333	0
bin	-0.1	0
bin	-0.066666666666667	0
bin	-0.033333333333333	0
bin	0	1
bin	0.033333333333333	0
bin	0.066666666666667	0
bin	0.1	0
bin	0.13333333333333	0
bin	0.16666666666667	0
bin	0.2	0
bin	0.23333333333333	0
bin	0.26666666666667	0
bin	0.3	0
bin	0.33333333333333	0
bin	0.36666666666667	0
bin	0.4	0
bin	0.43333333333333	0
bin	0.46666666666667	0
bin	0.5	0
scalar SemiDecentralized.host[3].wlan[0].radio 	bitrate:min 	54000000
attr interpolationmode  sample-hold
attr title  "tx bitrate, min"
attr unit  bps
scalar SemiDecentralized.host[3].wlan[0].radio 	bitrate:max 	54000000
attr interpolationmode  sample-hold
attr title  "tx bitrate, max"
attr unit  bps
scalar SemiDecentralized.host[3].wlan[0].radio 	bitrate:timeavg 	54000000
attr interpolationmode  sample-hold
attr title  "tx bitrate, timeavg"
attr unit  bps
scalar SemiDecentralized.host[3].udpApp[0] 	"packets sent" 	30
scalar SemiDecentralized.host[3].udpApp[0] 	"packets received" 	0
statistic SemiDecentralized.host[3].udpApp[0] 	rcvdPkLifetime:stats
field count 0
field mean -nan
field stddev -nan
field sum 0
field sqrsum 0
field min -nan
field max -nan
attr interpolationmode  none
attr source  messageAge(rcvdPk)
attr title  "received packet lifetime, stats"
attr unit  s
scalar SemiDecentralized.host[3].udp 	droppedPkBadChecksum:count 	0
attr interpolationmode  none
attr title  "packets dropped (checksum error), count"
scalar SemiDecentralized.host[3].udp 	droppedPkWrongPort:count 	0
attr interpolationmode  none
attr title  "packets dropped (wrong port), count"
scalar SemiDecentralized.host[3].udp 	passedUpPk:count 	0
attr interpolationmode  none
attr title  "packets passed up, count"
scalar SemiDecentralized.host[3].udp 	rcvdPk:count 	0
attr interpolationmode  none
attr source  rcvdPk
attr title  "packets received, count"
scalar SemiDecentralized.host[3].udp 	rcvdPk:sum(packetBytes) 	0
attr interpolationmode  none
attr source  rcvdPk
attr title  "packets received, sum(packetBytes)"
scalar SemiDecentralized.host[3].udp 	sentPk:count 	30
attr interpolationmode  none
attr source  sentPk
attr title  "packets sent, count"
scalar SemiDecentralized.host[3].udp 	sentPk:sum(packetBytes) 	15600
attr interpolationmode  none
attr source  sentPk
attr title  "packets sent, sum(packetBytes)"
statistic SemiDecentralized.host[3].aodv 	NumSentAODVPackets
field count 64
field mean 32.5
field stddev 18.618986725025
field sum 2080
field sqrsum 89440
field min 1
field max 64
statistic SemiDecentralized.host[3].aodv 	NumReceivedAODVPackets
field count 30
field mean 15.5
field stddev 8.8034084308295
field sum 465
field sqrsum 9455
field min 1
field max 30
scalar SemiDecentralized.host[3].aodv 	"Number of LinkBreaks" 	0
scalar SemiDecentralized.host[3].aodv 	RERRSentNow 	0
scalar SemiDecentralized.host[3].rsmgmnt 	"Number Received RouteResponses" 	30
scalar SemiDecentralized.host[3].rsmgmnt 	"Number Sent RREQs" 	30
scalar SemiDecentralized.host[4].wlan[0].mac 	"number of receiveunsigned d packets" 	30
scalar SemiDecentralized.host[4].wlan[0].mac 	"number of collisions" 	31
scalar SemiDecentralized.host[4].wlan[0].mac 	"number of internal collisions" 	0
scalar SemiDecentralized.host[4].wlan[0].mac 	"number of retry for AC 0" 	0
scalar SemiDecentralized.host[4].wlan[0].mac 	"sent and received bits" 	254944
scalar SemiDecentralized.host[4].wlan[0].mac 	"sent packet within AC 0" 	0
scalar SemiDecentralized.host[4].wlan[0].mac 	"sent in TXOP " 	0
scalar SemiDecentralized.host[4].wlan[0].mac 	"sentWithoutRetry AC 0" 	0
scalar SemiDecentralized.host[4].wlan[0].mac 	"numGivenUp AC 0" 	0
scalar SemiDecentralized.host[4].wlan[0].mac 	"numDropped AC 0" 	0
scalar SemiDecentralized.host[4].wlan[0].radio 	lossRate:min 	0
attr interpolationmode  backward-sample-hold
attr title  "packet loss rate, min"
scalar SemiDecentralized.host[4].wlan[0].radio 	lossRate:max 	0.08
attr interpolationmode  backward-sample-hold
attr title  "packet loss rate, max"
scalar SemiDecentralized.host[4].wlan[0].radio 	lossRate:timeavg 	0.004645731154215
attr interpolationmode  backward-sample-hold
attr title  "packet loss rate, timeavg"
statistic SemiDecentralized.host[4].wlan[0].radio 	channelNo:histogram
field count 1
field mean 0
field stddev -nan
field sum 0
field sqrsum 0
field min 0
field max 0
attr interpolationmode  sample-hold
attr title  "channel no, histogram"
bin	-INF	0
bin	-0.5	0
bin	-0.46666666666667	0
bin	-0.43333333333333	0
bin	-0.4	0
bin	-0.36666666666667	0
bin	-0.33333333333333	0
bin	-0.3	0
bin	-0.26666666666667	0
bin	-0.23333333333333	0
bin	-0.2	0
bin	-0.16666666666667	0
bin	-0.13333333333333	0
bin	-0.1	0
bin	-0.066666666666667	0
bin	-0.033333333333333	0
bin	0	1
bin	0.033333333333333	0
bin	0.066666666666667	0
bin	0.1	0
bin	0.13333333333333	0
bin	0.16666666666667	0
bin	0.2	0
bin	0.23333333333333	0
bin	0.26666666666667	0
bin	0.3	0
bin	0.33333333333333	0
bin	0.36666666666667	0
bin	0.4	0
bin	0.43333333333333	0
bin	0.46666666666667	0
bin	0.5	0
scalar SemiDecentralized.host[4].wlan[0].radio 	bitrate:min 	54000000
attr interpolationmode  sample-hold
attr title  "tx bitrate, min"
attr unit  bps
scalar SemiDecentralized.host[4].wlan[0].radio 	bitrate:max 	54000000
attr interpolationmode  sample-hold
attr title  "tx bitrate, max"
attr unit  bps
scalar SemiDecentralized.host[4].wlan[0].radio 	bitrate:timeavg 	54000000
attr interpolationmode  sample-hold
attr title  "tx bitrate, timeavg"
attr unit  bps
statistic SemiDecentralized.host[4].udpApp[0] 	endToEndDelay:histogram
field count 30
field mean 0.0034399984078667
field stddev 0.0016377151343108
field sum 0.103199952236
field sqrsum 0.00043278888635713
field min 0.000603183169
field max 0.006570292228
attr interpolationmode  none
attr source  messageAge(rcvdPk)
attr title  "end-to-end delay, histogram"
attr unit  s
bin	-INF	0
bin	-0.0023803713605	0
bin	-0.0019825640899	0
bin	-0.0015847568193	0
bin	-0.0011869495487	0
bin	-0.0007891422781	0
bin	-0.0003913350075	0
bin	6.4722631000001e-06	0
bin	0.0004042795337	3
bin	0.0008020868043	1
bin	0.0011998940749	2
bin	0.0015977013455	0
bin	0.0019955086161	1
bin	0.0023933158867	1
bin	0.0027911231573	5
bin	0.0031889304279	3
bin	0.0035867376985	4
bin	0.0039845449691	0
bin	0.0043823522397	2
bin	0.0047801595103	2
bin	0.0051779667809	5
bin	0.0055757740515	0
bin	0.0059735813221	0
bin	0.0063713885927	1
bin	0.0067691958633	0
bin	0.0071670031339	0
bin	0.0075648104045	0
bin	0.0079626176751	0
bin	0.0083604249457	0
bin	0.0087582322163	0
bin	0.0091560394869	0
bin	0.0095538467575	0
scalar SemiDecentralized.host[4].udp 	droppedPkBadChecksum:count 	0
attr interpolationmode  none
attr title  "packets dropped (checksum error), count"
scalar SemiDecentralized.host[4].udp 	droppedPkWrongPort:count 	0
attr interpolationmode  none
attr title  "packets dropped (wrong port), count"
scalar SemiDecentralized.host[4].udp 	passedUpPk:count 	30
attr interpolationmode  none
attr title  "packets passed up, count"
scalar SemiDecentralized.host[4].udp 	rcvdPk:count 	30
attr interpolationmode  none
attr source  rcvdPk
attr title  "packets received, count"
scalar SemiDecentralized.host[4].udp 	rcvdPk:sum(packetBytes) 	15600
attr interpolationmode  none
attr source  rcvdPk
attr title  "packets received, sum(packetBytes)"
scalar SemiDecentralized.host[4].udp 	sentPk:count 	0
attr interpolationmode  none
attr source  sentPk
attr title  "packets sent, count"
scalar SemiDecentralized.host[4].udp 	sentPk:sum(packetBytes) 	0
attr interpolationmode  none
attr source  sentPk
attr title  "packets sent, sum(packetBytes)"
statistic SemiDecentralized.host[4].aodv 	NumSentAODVPackets
field count 0
field mean -nan
field stddev -nan
field sum 0
field sqrsum 0
field min -nan
field max -nan
statistic SemiDecentralized.host[4].aodv 	NumReceivedAODVPackets
field count 0
field mean -nan
field stddev -nan
field sum 0
field sqrsum 0
field min -nan
field max -nan
scalar SemiDecentralized.host[4].aodv 	"Number of LinkBreaks" 	0
scalar SemiDecentralized.host[4].aodv 	RERRSentNow 	0
scalar SemiDecentralized.host[4].rsmgmnt 	"Number Received RouteResponses" 	0
scalar SemiDecentralized.host[4].rsmgmnt 	"Number Sent RREQs" 	0
scalar SemiDecentralized.host[5].wlan[0].mac 	"number of receiveunsigned d packets" 	0
scalar SemiDecentralized.host[5].wlan[0].mac 	"number of collisions" 	11
scalar SemiDecentralized.host[5].wlan[0].mac 	"number of internal collisions" 	0
scalar SemiDecentralized.host[5].wlan[0].mac 	"number of retry for AC 0" 	0
scalar SemiDecentralized.host[5].wlan[0].mac 	"sent and received bits" 	394624
scalar SemiDecentralized.host[5].wlan[0].mac 	"sent packet within AC 0" 	30
scalar SemiDecentralized.host[5].wlan[0].mac 	"sent in TXOP " 	0
scalar SemiDecentralized.host[5].wlan[0].mac 	"sentWithoutRetry AC 0" 	30
scalar SemiDecentralized.host[5].wlan[0].mac 	"numGivenUp AC 0" 	0
scalar SemiDecentralized.host[5].wlan[0].mac 	"numDropped AC 0" 	0
scalar SemiDecentralized.host[5].wlan[0].radio 	lossRate:min 	0
attr interpolationmode  backward-sample-hold
attr title  "packet loss rate, min"
scalar SemiDecentralized.host[5].wlan[0].radio 	lossRate:max 	0.04
attr interpolationmode  backward-sample-hold
attr title  "packet loss rate, max"
scalar SemiDecentralized.host[5].wlan[0].radio 	lossRate:timeavg 	0.0025223845800992
attr interpolationmode  backward-sample-hold
attr title  "packet loss rate, timeavg"
statistic SemiDecentralized.host[5].wlan[0].radio 	channelNo:histogram
field count 1
field mean 0
field stddev -nan
field sum 0
field sqrsum 0
field min 0
field max 0
attr interpolationmode  sample-hold
attr title  "channel no, histogram"
bin	-INF	0
bin	-0.5	0
bin	-0.46666666666667	0
bin	-0.43333333333333	0
bin	-0.4	0
bin	-0.36666666666667	0
bin	-0.33333333333333	0
bin	-0.3	0
bin	-0.26666666666667	0
bin	-0.23333333333333	0
bin	-0.2	0
bin	-0.16666666666667	0
bin	-0.13333333333333	0
bin	-0.1	0
bin	-0.066666666666667	0
bin	-0.033333333333333	0
bin	0	1
bin	0.033333333333333	0
bin	0.066666666666667	0
bin	0.1	0
bin	0.13333333333333	0
bin	0.16666666666667	0
bin	0.2	0
bin	0.23333333333333	0
bin	0.26666666666667	0
bin	0.3	0
bin	0.33333333333333	0
bin	0.36666666666667	0
bin	0.4	0
bin	0.43333333333333	0
bin	0.46666666666667	0
bin	0.5	0
scalar SemiDecentralized.host[5].wlan[0].radio 	bitrate:min 	54000000
attr interpolationmode  sample-hold
attr title  "tx bitrate, min"
attr unit  bps
scalar SemiDecentralized.host[5].wlan[0].radio 	bitrate:max 	54000000
attr interpolationmode  sample-hold
attr title  "tx bitrate, max"
attr unit  bps
scalar SemiDecentralized.host[5].wlan[0].radio 	bitrate:timeavg 	54000000
attr interpolationmode  sample-hold
attr title  "tx bitrate, timeavg"
attr unit  bps
scalar SemiDecentralized.host[5].udpApp[0] 	"packets sent" 	30
scalar SemiDecentralized.host[5].udpApp[0] 	"packets received" 	0
statistic SemiDecentralized.host[5].udpApp[0] 	rcvdPkLifetime:stats
field count 0
field mean -nan
field stddev -nan
field sum 0
field sqrsum 0
field min -nan
field max -nan
attr interpolationmode  none
attr source  messageAge(rcvdPk)
attr title  "received packet lifetime, stats"
attr unit  s
scalar SemiDecentralized.host[5].udp 	droppedPkBadChecksum:count 	0
attr interpolationmode  none
attr title  "packets dropped (checksum error), count"
scalar SemiDecentralized.host[5].udp 	droppedPkWrongPort:count 	0
attr interpolationmode  none
attr title  "packets dropped (wrong port), count"
scalar SemiDecentralized.host[5].udp 	passedUpPk:count 	0
attr interpolationmode  none
attr title  "packets passed up, count"
scalar SemiDecentralized.host[5].udp 	rcvdPk:count 	0
attr interpolationmode  none
attr source  rcvdPk
attr title  "packets received, count"
scalar SemiDecentralized.host[5].udp 	rcvdPk:sum(packetBytes) 	0
attr interpolationmode  none
attr source  rcvdPk
attr title  "packets received, sum(packetBytes)"
scalar SemiDecentralized.host[5].udp 	sentPk:count 	30
attr interpolationmode  none
attr source  sentPk
attr title  "packets sent, count"
scalar SemiDecentralized.host[5].udp 	sentPk:sum(packetBytes) 	15600
attr interpolationmode  none
attr source  sentPk
attr title  "packets sent, sum(packetBytes)"
statistic SemiDecentralized.host[5].aodv 	NumSentAODVPackets
field count 30
field mean 15.5
field stddev 8.8034084308295
field sum 465
field sqrsum 9455
field min 1
field max 30
statistic SemiDecentralized.host[5].aodv 	NumReceivedAODVPackets
field count 30
field mean 15.5
field stddev 8.8034084308295
field sum 465
field sqrsum 9455
field min 1
field max 30
scalar SemiDecentralized.host[5].aodv 	"Number of LinkBreaks" 	0
scalar SemiDecentralized.host[5].aodv 	RERRSentNow 	0
scalar SemiDecentralized.host[5].rsmgmnt 	"Number Received RouteResponses" 	30
scalar SemiDecentralized.host[5].rsmgmnt 	"Number Sent RREQs" 	30
scalar SemiDecentralized.host[6].wlan[0].mac 	"number of receiveunsigned d packets" 	92
scalar SemiDecentralized.host[6].wlan[0].mac 	"number of collisions" 	63
scalar SemiDecentralized.host[6].wlan[0].mac 	"number of internal collisions" 	0
scalar SemiDecentralized.host[6].wlan[0].mac 	"number of retry for AC 0" 	3
scalar SemiDecentralized.host[6].wlan[0].mac 	"sent and received bits" 	544112
scalar SemiDecentralized.host[6].wlan[0].mac 	"sent packet within AC 0" 	62
scalar SemiDecentralized.host[6].wlan[0].mac 	"sent in TXOP " 	0
scalar SemiDecentralized.host[6].wlan[0].mac 	"sentWithoutRetry AC 0" 	60
scalar SemiDecentralized.host[6].wlan[0].mac 	"numGivenUp AC 0" 	0
scalar SemiDecentralized.host[6].wlan[0].mac 	"numDropped AC 0" 	0
scalar SemiDecentralized.host[6].wlan[0].radio 	lossRate:min 	0
attr interpolationmode  backward-sample-hold
attr title  "packet loss rate, min"
scalar SemiDecentralized.host[6].wlan[0].radio 	lossRate:max 	0.06
attr interpolationmode  backward-sample-hold
attr title  "packet loss rate, max"
scalar SemiDecentralized.host[6].wlan[0].radio 	lossRate:timeavg 	0.0073328017966616
attr interpolationmode  backward-sample-hold
attr title  "packet loss rate, timeavg"
statistic SemiDecentralized.host[6].wlan[0].radio 	channelNo:histogram
field count 1
field mean 0
field stddev -nan
field sum 0
field sqrsum 0
field min 0
field max 0
attr interpolationmode  sample-hold
attr title  "channel no, histogram"
bin	-INF	0
bin	-0.5	0
bin	-0.46666666666667	0
bin	-0.43333333333333	0
bin	-0.4	0
bin	-0.36666666666667	0
bin	-0.33333333333333	0
bin	-0.3	0
bin	-0.26666666666667	0
bin	-0.23333333333333	0
bin	-0.2	0
bin	-0.16666666666667	0
bin	-0.13333333333333	0
bin	-0.1	0
bin	-0.066666666666667	0
bin	-0.033333333333333	0
bin	0	1
bin	0.033333333333333	0
bin	0.066666666666667	0
bin	0.1	0
bin	0.13333333333333	0
bin	0.16666666666667	0
bin	0.2	0
bin	0.23333333333333	0
bin	0.26666666666667	0
bin	0.3	0
bin	0.33333333333333	0
bin	0.36666666666667	0
bin	0.4	0
bin	0.43333333333333	0
bin	0.46666666666667	0
bin	0.5	0
scalar SemiDecentralized.host[6].wlan[0].radio 	bitrate:min 	54000000
attr interpolationmode  sample-hold
attr title  "tx bitrate, min"
attr unit  bps
scalar SemiDecentralized.host[6].wlan[0].radio 	bitrate:max 	54000000
attr interpolationmode  sample-hold
attr title  "tx bitrate, max"
attr unit  bps
scalar SemiDecentralized.host[6].wlan[0].radio 	bitrate:timeavg 	54000000
attr interpolationmode  sample-hold
attr title  "tx bitrate, timeavg"
attr unit  bps
statistic SemiDecentralized.host[6].udpApp[0] 	endToEndDelay:histogram
field count 30
field mean 0.0033979553898667
field stddev 0.0015365235233916
field sum 0.101938661696
field sqrsum 0.00041484925654585
field min 0.00108211098
field max 0.006259504538
attr interpolationmode  none
attr source  messageAge(rcvdPk)
attr title  "end-to-end delay, histogram"
attr unit  s
bin	-INF	0
bin	-0.001506585799	0
bin	-0.0011614262284667	0
bin	-0.00081626665793333	0
bin	-0.0004711070874	0
bin	-0.00012594751686667	0
bin	0.00021921205366667	0
bin	0.0005643716242	0
bin	0.00090953119473333	1
bin	0.0012546907652667	3
bin	0.0015998503358	2
bin	0.0019450099063333	3
bin	0.0022901694768667	2
bin	0.0026353290474	1
bin	0.0029804886179333	3
bin	0.0033256481884667	3
bin	0.003670807759	4
bin	0.0040159673295333	0
bin	0.0043611269000667	2
bin	0.0047062864706	0
bin	0.0050514460411333	1
bin	0.0053966056116667	2
bin	0.0057417651822	2
bin	0.0060869247527333	1
bin	0.0064320843232667	0
bin	0.0067772438938	0
bin	0.0071224034643333	0
bin	0.0074675630348667	0
bin	0.0078127226054	0
bin	0.0081578821759333	0
bin	0.0085030417464667	0
bin	0.008848201317	0
scalar SemiDecentralized.host[6].udp 	droppedPkBadChecksum:count 	0
attr interpolationmode  none
attr title  "packets dropped (checksum error), count"
scalar SemiDecentralized.host[6].udp 	droppedPkWrongPort:count 	0
attr interpolationmode  none
attr title  "packets dropped (wrong port), count"
scalar SemiDecentralized.host[6].udp 	passedUpPk:count 	30
attr interpolationmode  none
attr title  "packets passed up, count"
scalar SemiDecentralized.host[6].udp 	rcvdPk:count 	30
attr interpolationmode  none
attr source  rcvdPk
attr title  "packets received, count"
scalar SemiDecentralized.host[6].udp 	rcvdPk:sum(packetBytes) 	15600
attr interpolationmode  none
attr source  rcvdPk
attr title  "packets received, sum(packetBytes)"
scalar SemiDecentralized.host[6].udp 	sentPk:count 	0
attr interpolationmode  none
attr source  sentPk
attr title  "packets sent, count"
scalar SemiDecentralized.host[6].udp 	sentPk:sum(packetBytes) 	0
attr interpolationmode  none
attr source  sentPk
attr title  "packets sent, sum(packetBytes)"
statistic SemiDecentralized.host[6].aodv 	NumSentAODVPackets
field count 62
field mean 31.5
field stddev 18.041618552669
field sum 1953
field sqrsum 81375
field min 1
field max 62
statistic SemiDecentralized.host[6].aodv 	NumReceivedAODVPackets
field count 0
field mean -nan
field stddev -nan
field sum 0
field sqrsum 0
field min -nan
field max -nan
scalar SemiDecentralized.host[6].aodv 	"Number of LinkBreaks" 	0
scalar SemiDecentralized.host[6].aodv 	RERRSentNow 	0
scalar SemiDecentralized.host[6].rsmgmnt 	"Number Received RouteResponses" 	0
scalar SemiDecentralized.host[6].rsmgmnt 	"Number Sent RREQs" 	0
scalar SemiDecentralized.host[7].wlan[0].mac 	"number of receiveunsigned d packets" 	111
scalar SemiDecentralized.host[7].wlan[0].mac 	"number of collisions" 	47
scalar SemiDecentralized.host[7].wlan[0].mac 	"number of internal collisions" 	0
scalar SemiDecentralized.host[7].wlan[0].mac 	"number of retry for AC 0" 	2
scalar SemiDecentralized.host[7].wlan[0].mac 	"sent and received bits" 	874192
scalar SemiDecentralized.host[7].wlan[0].mac 	"sent packet within AC 0" 	133
scalar SemiDecentralized.host[7].wlan[0].mac 	"sent in TXOP " 	0
scalar SemiDecentralized.host[7].wlan[0].mac 	"sentWithoutRetry AC 0" 	131
scalar SemiDecentralized.host[7].wlan[0].mac 	"numGivenUp AC 0" 	0
scalar SemiDecentralized.host[7].wlan[0].mac 	"numDropped AC 0" 	0
scalar SemiDecentralized.host[7].wlan[0].radio 	lossRate:min 	0
attr interpolationmode  backward-sample-hold
attr title  "packet loss rate, min"
scalar SemiDecentralized.host[7].wlan[0].radio 	lossRate:max 	0.06
attr interpolationmode  backward-sample-hold
attr title  "packet loss rate, max"
scalar SemiDecentralized.host[7].wlan[0].radio 	lossRate:timeavg 	0.0057897833299376
attr interpolationmode  backward-sample-hold
attr title  "packet loss rate, timeavg"
statistic SemiDecentralized.host[7].wlan[0].radio 	channelNo:histogram
field count 1
field mean 0
field stddev -nan
field sum 0
field sqrsum 0
field min 0
field max 0
attr interpolationmode  sample-hold
attr title  "channel no, histogram"
bin	-INF	0
bin	-0.5	0
bin	-0.46666666666667	0
bin	-0.43333333333333	0
bin	-0.4	0
bin	-0.36666666666667	0
bin	-0.33333333333333	0
bin	-0.3	0
bin	-0.26666666666667	0
bin	-0.23333333333333	0
bin	-0.2	0
bin	-0.16666666666667	0
bin	-0.13333333333333	0
bin	-0.1	0
bin	-0.066666666666667	0
bin	-0.033333333333333	0
bin	0	1
bin	0.033333333333333	0
bin	0.066666666666667	0
bin	0.1	0
bin	0.13333333333333	0
bin	0.16666666666667	0
bin	0.2	0
bin	0.23333333333333	0
bin	0.26666666666667	0
bin	0.3	0
bin	0.33333333333333	0
bin	0.36666666666667	0
bin	0.4	0
bin	0.43333333333333	0
bin	0.46666666666667	0
bin	0.5	0
scalar SemiDecentralized.host[7].wlan[0].radio 	bitrate:min 	54000000
attr interpolationmode  sample-hold
attr title  "tx bitrate, min"
attr unit  bps
scalar SemiDecentralized.host[7].wlan[0].radio 	bitrate:max 	54000000
attr interpolationmode  sample-hold
attr title  "tx bitrate, max"
attr unit  bps
scalar SemiDecentralized.host[7].wlan[0].radio 	bitrate:timeavg 	54000000
attr interpolationmode  sample-hold
attr title  "tx bitrate, timeavg"
attr unit  bps
scalar SemiDecentralized.host[7].udpApp[0] 	"packets sent" 	30
scalar SemiDecentralized.host[7].udpApp[0] 	"packets received" 	0
statistic SemiDecentralized.host[7].udpApp[0] 	rcvdPkLifetime:stats
field count 0
field mean -nan
field stddev -nan
field sum 0
field sqrsum 0
field min -nan
field max -nan
attr interpolationmode  none
attr source  messageAge(rcvdPk)
attr title  "received packet lifetime, stats"
attr unit  s
scalar SemiDecentralized.host[7].udp 	droppedPkBadChecksum:count 	0
attr interpolationmode  none
attr title  "packets dropped (checksum error), count"
scalar SemiDecentralized.host[7].udp 	droppedPkWrongPort:count 	0
attr interpolationmode  none
attr title  "packets dropped (wrong port), count"
scalar SemiDecentralized.host[7].udp 	passedUpPk:count 	0
attr interpolationmode  none
attr title  "packets passed up, count"
scalar SemiDecentralized.host[7].udp 	rcvdPk:count 	0
attr interpolationmode  none
attr source  rcvdPk
attr title  "packets received, count"
scalar SemiDecentralized.host[7].udp 	rcvdPk:sum(packetBytes) 	0
attr interpolationmode  none
attr source  rcvdPk
attr title  "packets received, sum(packetBytes)"
scalar SemiDecentralized.host[7].udp 	sentPk:count 	30
attr interpolationmode  none
attr source  sentPk
attr title  "packets sent, count"
scalar SemiDecentralized.host[7].udp 	sentPk:sum(packetBytes) 	15600
attr interpolationmode  none
attr source  sentPk
attr title  "packets sent, sum(packetBytes)"
statistic SemiDecentralized.host[7].aodv 	NumSentAODVPackets
field count 141
field mean 71
field stddev 40.847276531
field sum 10011
field sqrsum 944371
field min 1
field max 141
statistic SemiDecentralized.host[7].aodv 	NumReceivedAODVPackets
field count 30
field mean 15.5
field stddev 8.8034084308295
field sum 465
field sqrsum 9455
field min 1
field max 30
scalar SemiDecentralized.host[7].aodv 	"Number of LinkBreaks" 	0
scalar SemiDecentralized.host[7].aodv 	RERRSentNow 	0
scalar SemiDecentralized.host[7].rsmgmnt 	"Number Received RouteResponses" 	30
scalar SemiDecentralized.host[7].rsmgmnt 	"Number Sent RREQs" 	30
scalar SemiDecentralized.host[8].wlan[0].mac 	"number of receiveunsigned d packets" 	115
scalar SemiDecentralized.host[8].wlan[0].mac 	"number of collisions" 	100
scalar SemiDecentralized.host[8].wlan[0].mac 	"number of internal collisions" 	0
scalar SemiDecentralized.host[8].wlan[0].mac 	"number of retry for AC 0" 	1
scalar SemiDecentralized.host[8].wlan[0].mac 	"sent and received bits" 	664176
scalar SemiDecentralized.host[8].wlan[0].mac 	"sent packet within AC 0" 	88
scalar SemiDecentralized.host[8].wlan[0].mac 	"sent in TXOP " 	0
scalar SemiDecentralized.host[8].wlan[0].mac 	"sentWithoutRetry AC 0" 	87
scalar SemiDecentralized.host[8].wlan[0].mac 	"numGivenUp AC 0" 	0
scalar SemiDecentralized.host[8].wlan[0].mac 	"numDropped AC 0" 	0
scalar SemiDecentralized.host[8].wlan[0].radio 	lossRate:min 	0
attr interpolationmode  backward-sample-hold
attr title  "packet loss rate, min"
scalar SemiDecentralized.host[8].wlan[0].radio 	lossRate:max 	0.08
attr interpolationmode  backward-sample-hold
attr title  "packet loss rate, max"
scalar SemiDecentralized.host[8].wlan[0].radio 	lossRate:timeavg 	0.0089151750376534
attr interpolationmode  backward-sample-hold
attr title  "packet loss rate, timeavg"
statistic SemiDecentralized.host[8].wlan[0].radio 	channelNo:histogram
field count 1
field mean 0
field stddev -nan
field sum 0
field sqrsum 0
field min 0
field max 0
attr interpolationmode  sample-hold
attr title  "channel no, histogram"
bin	-INF	0
bin	-0.5	0
bin	-0.46666666666667	0
bin	-0.43333333333333	0
bin	-0.4	0
bin	-0.36666666666667	0
bin	-0.33333333333333	0
bin	-0.3	0
bin	-0.26666666666667	0
bin	-0.23333333333333	0
bin	-0.2	0
bin	-0.16666666666667	0
bin	-0.13333333333333	0
bin	-0.1	0
bin	-0.066666666666667	0
bin	-0.033333333333333	0
bin	0	1
bin	0.033333333333333	0
bin	0.066666666666667	0
bin	0.1	0
bin	0.13333333333333	0
bin	0.16666666666667	0
bin	0.2	0
bin	0.23333333333333	0
bin	0.26666666666667	0
bin	0.3	0
bin	0.33333333333333	0
bin	0.36666666666667	0
bin	0.4	0
bin	0.43333333333333	0
bin	0.46666666666667	0
bin	0.5	0
scalar SemiDecentralized.host[8].wlan[0].radio 	bitrate:min 	54000000
attr interpolationmode  sample-hold
attr title  "tx bitrate, min"
attr unit  bps
scalar SemiDecentralized.host[8].wlan[0].radio 	bitrate:max 	54000000
attr interpolationmode  sample-hold
attr title  "tx bitrate, max"
attr unit  bps
scalar SemiDecentralized.host[8].wlan[0].radio 	bitrate:timeavg 	54000000
attr interpolationmode  sample-hold
attr title  "tx bitrate, timeavg"
attr unit  bps
statistic SemiDecentralized.host[8].udpApp[0] 	endToEndDelay:histogram
field count 27
field mean 0.0044802940625926
field stddev 0.0015404118215441
field sum 0.12096793969
field sqrsum 0.00060366652503594
field min 0.002109553331
field max 0.006910978059
attr interpolationmode  none
attr source  messageAge(rcvdPk)
attr title  "end-to-end delay, histogram"
attr unit  s
bin	-INF	0
bin	-0.000291159033	0
bin	2.8935948866666e-05	0
bin	0.00034903093073333	0
bin	0.0006691259126	0
bin	0.00098922089446667	0
bin	0.0013093158763333	0
bin	0.0016294108582	0
bin	0.0019495058400667	2
bin	0.0022696008219333	2
bin	0.0025896958038	1
bin	0.0029097907856667	1
bin	0.0032298857675333	3
bin	0.0035499807494	1
bin	0.0038700757312667	1
bin	0.0041901707131333	4
bin	0.004510265695	1
bin	0.0048303606768667	2
bin	0.0051504556587333	2
bin	0.0054705506406	0
bin	0.0057906456224667	2
bin	0.0061107406043333	0
bin	0.0064308355862	2
bin	0.0067509305680667	3
bin	0.0070710255499333	0
bin	0.0073911205318	0
bin	0.0077112155136667	0
bin	0.0080313104955333	0
bin	0.0083514054774	0
bin	0.0086715004592667	0
bin	0.0089915954411333	0
bin	0.009311690423	0
scalar SemiDecentralized.host[8].udp 	droppedPkBadChecksum:count 	0
attr interpolationmode  none
attr title  "packets dropped (checksum error), count"
scalar SemiDecentralized.host[8].udp 	droppedPkWrongPort:count 	0
attr interpolationmode  none
attr title  "packets dropped (wrong port), count"
scalar SemiDecentralized.host[8].udp 	passedUpPk:count 	27
attr interpolationmode  none
attr title  "packets passed up, count"
scalar SemiDecentralized.host[8].udp 	rcvdPk:count 	27
attr interpolationmode  none
attr source  rcvdPk
attr title  "packets received, count"
scalar SemiDecentralized.host[8].udp 	rcvdPk:sum(packetBytes) 	14040
attr interpolationmode  none
attr source  rcvdPk
attr title  "packets received, sum(packetBytes)"
scalar SemiDecentralized.host[8].udp 	sentPk:count 	0
attr interpolationmode  none
attr source  sentPk
attr title  "packets sent, count"
scalar SemiDecentralized.host[8].udp 	sentPk:sum(packetBytes) 	0
attr interpolationmode  none
attr source  sentPk
attr title  "packets sent, sum(packetBytes)"
statistic SemiDecentralized.host[8].aodv 	NumSentAODVPackets
field count 88
field mean 44.5
field stddev 25.547341675146
field sum 3916
field sqrsum 231044
field min 1
field max 88
statistic SemiDecentralized.host[8].aodv 	NumReceivedAODVPackets
field count 0
field mean -nan
field stddev -nan
field sum 0
field sqrsum 0
field min -nan
field max -nan
scalar SemiDecentralized.host[8].aodv 	"Number of LinkBreaks" 	0
scalar SemiDecentralized.host[8].aodv 	RERRSentNow 	0
scalar SemiDecentralized.host[8].rsmgmnt 	"Number Received RouteResponses" 	0
scalar SemiDecentralized.host[8].rsmgmnt 	"Number Sent RREQs" 	0
scalar SemiDecentralized.host[9].wlan[0].mac 	"number of receiveunsigned d packets" 	0
scalar SemiDecentralized.host[9].wlan[0].mac 	"number of collisions" 	15
scalar SemiDecentralized.host[9].wlan[0].mac 	"number of internal collisions" 	0
scalar SemiDecentralized.host[9].wlan[0].mac 	"number of retry for AC 0" 	0
scalar SemiDecentralized.host[9].wlan[0].mac 	"sent and received bits" 	396112
scalar SemiDecentralized.host[9].wlan[0].mac 	"sent packet within AC 0" 	30
scalar SemiDecentralized.host[9].wlan[0].mac 	"sent in TXOP " 	0
scalar SemiDecentralized.host[9].wlan[0].mac 	"sentWithoutRetry AC 0" 	30
scalar SemiDecentralized.host[9].wlan[0].mac 	"numGivenUp AC 0" 	0
scalar SemiDecentralized.host[9].wlan[0].mac 	"numDropped AC 0" 	0
scalar SemiDecentralized.host[9].wlan[0].radio 	lossRate:min 	0
attr interpolationmode  backward-sample-hold
attr title  "packet loss rate, min"
scalar SemiDecentralized.host[9].wlan[0].radio 	lossRate:max 	0.08
attr interpolationmode  backward-sample-hold
attr title  "packet loss rate, max"
scalar SemiDecentralized.host[9].wlan[0].radio 	lossRate:timeavg 	0.0026959754498436
attr interpolationmode  backward-sample-hold
attr title  "packet loss rate, timeavg"
statistic SemiDecentralized.host[9].wlan[0].radio 	channelNo:histogram
field count 1
field mean 0
field stddev -nan
field sum 0
field sqrsum 0
field min 0
field max 0
attr interpolationmode  sample-hold
attr title  "channel no, histogram"
bin	-INF	0
bin	-0.5	0
bin	-0.46666666666667	0
bin	-0.43333333333333	0
bin	-0.4	0
bin	-0.36666666666667	0
bin	-0.33333333333333	0
bin	-0.3	0
bin	-0.26666666666667	0
bin	-0.23333333333333	0
bin	-0.2	0
bin	-0.16666666666667	0
bin	-0.13333333333333	0
bin	-0.1	0
bin	-0.066666666666667	0
bin	-0.033333333333333	0
bin	0	1
bin	0.033333333333333	0
bin	0.066666666666667	0
bin	0.1	0
bin	0.13333333333333	0
bin	0.16666666666667	0
bin	0.2	0
bin	0.23333333333333	0
bin	0.26666666666667	0
bin	0.3	0
bin	0.33333333333333	0
bin	0.36666666666667	0
bin	0.4	0
bin	0.43333333333333	0
bin	0.46666666666667	0
bin	0.5	0
scalar SemiDecentralized.host[9].wlan[0].radio 	bitrate:min 	54000000
attr interpolationmode  sample-hold
attr title  "tx bitrate, min"
attr unit  bps
scalar SemiDecentralized.host[9].wlan[0].radio 	bitrate:max 	54000000
attr interpolationmode  sample-hold
attr title  "tx bitrate, max"
attr unit  bps
scalar SemiDecentralized.host[9].wlan[0].radio 	bitrate:timeavg 	54000000
attr interpolationmode  sample-hold
attr title  "tx bitrate, timeavg"
attr unit  bps
scalar SemiDecentralized.host[9].udpApp[0] 	"packets sent" 	30
scalar SemiDecentralized.host[9].udpApp[0] 	"packets received" 	0
statistic SemiDecentralized.host[9].udpApp[0] 	rcvdPkLifetime:stats
field count 0
field mean -nan
field stddev -nan
field sum 0
field sqrsum 0
field min -nan
field max -nan
attr interpolationmode  none
attr source  messageAge(rcvdPk)
attr title  "received packet lifetime, stats"
attr unit  s
scalar SemiDecentralized.host[9].udp 	droppedPkBadChecksum:count 	0
attr interpolationmode  none
attr title  "packets dropped (checksum error), count"
scalar SemiDecentralized.host[9].udp 	droppedPkWrongPort:count 	0
attr interpolationmode  none
attr title  "packets dropped (wrong port), count"
scalar SemiDecentralized.host[9].udp 	passedUpPk:count 	0
attr interpolationmode  none
attr title  "packets passed up, count"
scalar SemiDecentralized.host[9].udp 	rcvdPk:count 	0
attr interpolationmode  none
attr source  rcvdPk
attr title  "packets received, count"
scalar SemiDecentralized.host[9].udp 	rcvdPk:sum(packetBytes) 	0
attr interpolationmode  none
attr source  rcvdPk
attr title  "packets received, sum(packetBytes)"
scalar SemiDecentralized.host[9].udp 	sentPk:count 	30
attr interpolationmode  none
attr source  sentPk
attr title  "packets sent, count"
scalar SemiDecentralized.host[9].udp 	sentPk:sum(packetBytes) 	15600
attr interpolationmode  none
attr source  sentPk
attr title  "packets sent, sum(packetBytes)"
statistic SemiDecentralized.host[9].aodv 	NumSentAODVPackets
field count 30
field mean 15.5
field stddev 8.8034084308295
field sum 465
field sqrsum 9455
field min 1
field max 30
statistic SemiDecentralized.host[9].aodv 	NumReceivedAODVPackets
field count 30
field mean 15.5
field stddev 8.8034084308295
field sum 465
field sqrsum 9455
field min 1
field max 30
scalar SemiDecentralized.host[9].aodv 	"Number of LinkBreaks" 	0
scalar SemiDecentralized.host[9].aodv 	RERRSentNow 	0
scalar SemiDecentralized.host[9].rsmgmnt 	"Number Received RouteResponses" 	30
scalar SemiDecentralized.host[9].rsmgmnt 	"Number Sent RREQs" 	30
scalar SemiDecentralized.host[10].wlan[0].mac 	"number of receiveunsigned d packets" 	49
scalar SemiDecentralized.host[10].wlan[0].mac 	"number of collisions" 	65
scalar SemiDecentralized.host[10].wlan[0].mac 	"number of internal collisions" 	0
scalar SemiDecentralized.host[10].wlan[0].mac 	"number of retry for AC 0" 	0
scalar SemiDecentralized.host[10].wlan[0].mac 	"sent and received bits" 	356880
scalar SemiDecentralized.host[10].wlan[0].mac 	"sent packet within AC 0" 	22
scalar SemiDecentralized.host[10].wlan[0].mac 	"sent in TXOP " 	0
scalar SemiDecentralized.host[10].wlan[0].mac 	"sentWithoutRetry AC 0" 	22
scalar SemiDecentralized.host[10].wlan[0].mac 	"numGivenUp AC 0" 	0
scalar SemiDecentralized.host[10].wlan[0].mac 	"numDropped AC 0" 	0
scalar SemiDecentralized.host[10].wlan[0].radio 	lossRate:min 	0
attr interpolationmode  backward-sample-hold
attr title  "packet loss rate, min"
scalar SemiDecentralized.host[10].wlan[0].radio 	lossRate:max 	0.06
attr interpolationmode  backward-sample-hold
attr title  "packet loss rate, max"
scalar SemiDecentralized.host[10].wlan[0].radio 	lossRate:timeavg 	0.0083094366593716
attr interpolationmode  backward-sample-hold
attr title  "packet loss rate, timeavg"
statistic SemiDecentralized.host[10].wlan[0].radio 	channelNo:histogram
field count 1
field mean 0
field stddev -nan
field sum 0
field sqrsum 0
field min 0
field max 0
attr interpolationmode  sample-hold
attr title  "channel no, histogram"
bin	-INF	0
bin	-0.5	0
bin	-0.46666666666667	0
bin	-0.43333333333333	0
bin	-0.4	0
bin	-0.36666666666667	0
bin	-0.33333333333333	0
bin	-0.3	0
bin	-0.26666666666667	0
bin	-0.23333333333333	0
bin	-0.2	0
bin	-0.16666666666667	0
bin	-0.13333333333333	0
bin	-0.1	0
bin	-0.066666666666667	0
bin	-0.033333333333333	0
bin	0	1
bin	0.033333333333333	0
bin	0.066666666666667	0
bin	0.1	0
bin	0.13333333333333	0
bin	0.16666666666667	0
bin	0.2	0
bin	0.23333333333333	0
bin	0.26666666666667	0
bin	0.3	0
bin	0.33333333333333	0
bin	0.36666666666667	0
bin	0.4	0
bin	0.43333333333333	0
bin	0.46666666666667	0
bin	0.5	0
scalar SemiDecentralized.host[10].wlan[0].radio 	bitrate:min 	54000000
attr interpolationmode  sample-hold
attr title  "tx bitrate, min"
attr unit  bps
scalar SemiDecentralized.host[10].wlan[0].radio 	bitrate:max 	54000000
attr interpolationmode  sample-hold
attr title  "tx bitrate, max"
attr unit  bps
scalar SemiDecentralized.host[10].wlan[0].radio 	bitrate:timeavg 	54000000
attr interpolationmode  sample-hold
attr title  "tx bitrate, timeavg"
attr unit  bps
statistic SemiDecentralized.host[10].udpApp[0] 	endToEndDelay:histogram
field count 27
field mean 0.0051402417395556
field stddev 0.0015495448251347
field sum 0.138786526968
field sqrsum 0.00077582461710151
field min 0.002540622159
field max 0.008028557209
attr interpolationmode  none
attr source  messageAge(rcvdPk)
attr title  "end-to-end delay, histogram"
attr unit  s
bin	-INF	0
bin	-0.000203345366	0
bin	0.00016251697066667	0
bin	0.00052837930733333	0
bin	0.000894241644	0
bin	0.0012601039806667	0
bin	0.0016259663173333	0
bin	0.001991828654	0
bin	0.0023576909906667	1
bin	0.0027235533273333	2
bin	0.003089415664	0
bin	0.0034552780006667	1
bin	0.0038211403373333	5
bin	0.004187002674	4
bin	0.0045528650106667	0
bin	0.0049187273473333	1
bin	0.005284589684	1
bin	0.0056504520206667	4
bin	0.0060163143573333	3
bin	0.006382176694	0
bin	0.0067480390306667	1
bin	0.0071139013673333	2
bin	0.007479763704	0
bin	0.0078456260406667	2
bin	0.0082114883773333	0
bin	0.008577350714	0
bin	0.0089432130506667	0
bin	0.0093090753873333	0
bin	0.009674937724	0
bin	0.010040800060667	0
bin	0.010406662397333	0
bin	0.010772524734	0
scalar SemiDecentralized.host[10].udp 	droppedPkBadChecksum:count 	0
attr interpolationmode  none
attr title  "packets dropped (checksum error), count"
scalar SemiDecentralized.host[10].udp 	droppedPkWrongPort:count 	0
attr interpolationmode  none
attr title  "packets dropped (wrong port), count"
scalar SemiDecentralized.host[10].udp 	passedUpPk:count 	27
attr interpolationmode  none
attr title  "packets passed up, count"
scalar SemiDecentralized.host[10].udp 	rcvdPk:count 	27
attr interpolationmode  none
attr source  rcvdPk
attr title  "packets received, count"
scalar SemiDecentralized.host[10].udp 	rcvdPk:sum(packetBytes) 	14040
attr interpolationmode  none
attr source  rcvdPk
attr title  "packets received, sum(packetBytes)"
scalar SemiDecentralized.host[10].udp 	sentPk:count 	0
attr interpolationmode  none
attr source  sentPk
attr title  "packets sent, count"
scalar SemiDecentralized.host[10].udp 	sentPk:sum(packetBytes) 	0
attr interpolationmode  none
attr source  sentPk
attr title  "packets sent, sum(packetBytes)"
statistic SemiDecentralized.host[10].aodv 	NumSentAODVPackets
field count 22
field mean 11.5
field stddev 6.4935865795927
field sum 253
field sqrsum 3795
field min 1
field max 22
statistic SemiDecentralized.host[10].aodv 	NumReceivedAODVPackets
field count 0
field mean -nan
field stddev -nan
field sum 0
field sqrsum 0
field min -nan
field max -nan
scalar SemiDecentralized.host[10].aodv 	"Number of LinkBreaks" 	0
scalar SemiDecentralized.host[10].aodv 	RERRSentNow 	0
scalar SemiDecentralized.host[10].rsmgmnt 	"Number Received RouteResponses" 	0
scalar SemiDecentralized.host[10].rsmgmnt 	"Number Sent RREQs" 	0
scalar SemiDecentralized.host[11].wlan[0].mac 	"number of receiveunsigned d packets" 	0
scalar SemiDecentralized.host[11].wlan[0].mac 	"number of collisions" 	10
scalar SemiDecentralized.host[11].wlan[0].mac 	"number of internal collisions" 	0
scalar SemiDecentralized.host[11].wlan[0].mac 	"number of retry for AC 0" 	0
scalar SemiDecentralized.host[11].wlan[0].mac 	"sent and received bits" 	394624
scalar SemiDecentralized.host[11].wlan[0].mac 	"sent packet within AC 0" 	30
scalar SemiDecentralized.host[11].wlan[0].mac 	"sent in TXOP " 	0
scalar SemiDecentralized.host[11].wlan[0].mac 	"sentWithoutRetry AC 0" 	30
scalar SemiDecentralized.host[11].wlan[0].mac 	"numGivenUp AC 0" 	0
scalar SemiDecentralized.host[11].wlan[0].mac 	"numDropped AC 0" 	0
scalar SemiDecentralized.host[11].wlan[0].radio 	lossRate:min 	0
attr interpolationmode  backward-sample-hold
attr title  "packet loss rate, min"
scalar SemiDecentralized.host[11].wlan[0].radio 	lossRate:max 	0.06
attr interpolationmode  backward-sample-hold
attr title  "packet loss rate, max"
scalar SemiDecentralized.host[11].wlan[0].radio 	lossRate:timeavg 	0.0021724918917702
attr interpolationmode  backward-sample-hold
attr title  "packet loss rate, timeavg"
statistic SemiDecentralized.host[11].wlan[0].radio 	channelNo:histogram
field count 1
field mean 0
field stddev -nan
field sum 0
field sqrsum 0
field min 0
field max 0
attr interpolationmode  sample-hold
attr title  "channel no, histogram"
bin	-INF	0
bin	-0.5	0
bin	-0.46666666666667	0
bin	-0.43333333333333	0
bin	-0.4	0
bin	-0.36666666666667	0
bin	-0.33333333333333	0
bin	-0.3	0
bin	-0.26666666666667	0
bin	-0.23333333333333	0
bin	-0.2	0
bin	-0.16666666666667	0
bin	-0.13333333333333	0
bin	-0.1	0
bin	-0.066666666666667	0
bin	-0.033333333333333	0
bin	0	1
bin	0.033333333333333	0
bin	0.066666666666667	0
bin	0.1	0
bin	0.13333333333333	0
bin	0.16666666666667	0
bin	0.2	0
bin	0.23333333333333	0
bin	0.26666666666667	0
bin	0.3	0
bin	0.33333333333333	0
bin	0.36666666666667	0
bin	0.4	0
bin	0.43333333333333	0
bin	0.46666666666667	0
bin	0.5	0
scalar SemiDecentralized.host[11].wlan[0].radio 	bitrate:min 	54000000
attr interpolationmode  sample-hold
attr title  "tx bitrate, min"
attr unit  bps
scalar SemiDecentralized.host[11].wlan[0].radio 	bitrate:max 	54000000
attr interpolationmode  sample-hold
attr title  "tx bitrate, max"
attr unit  bps
scalar SemiDecentralized.host[11].wlan[0].radio 	bitrate:timeavg 	54000000
attr interpolationmode  sample-hold
attr title  "tx bitrate, timeavg"
attr unit  bps
scalar SemiDecentralized.host[11].udpApp[0] 	"packets sent" 	30
scalar SemiDecentralized.host[11].udpApp[0] 	"packets received" 	0
statistic SemiDecentralized.host[11].udpApp[0] 	rcvdPkLifetime:stats
field count 0
field mean -nan
field stddev -nan
field sum 0
field sqrsum 0
field min -nan
field max -nan
attr interpolationmode  none
attr source  messageAge(rcvdPk)
attr title  "received packet lifetime, stats"
attr unit  s
scalar SemiDecentralized.host[11].udp 	droppedPkBadChecksum:count 	0
attr interpolationmode  none
attr title  "packets dropped (checksum error), count"
scalar SemiDecentralized.host[11].udp 	droppedPkWrongPort:count 	0
attr interpolationmode  none
attr title  "packets dropped (wrong port), count"
scalar SemiDecentralized.host[11].udp 	passedUpPk:count 	0
attr interpolationmode  none
attr title  "packets passed up, count"
scalar SemiDecentralized.host[11].udp 	rcvdPk:count 	0
attr interpolationmode  none
attr source  rcvdPk
attr title  "packets received, count"
scalar SemiDecentralized.host[11].udp 	rcvdPk:sum(packetBytes) 	0
attr interpolationmode  none
attr source  rcvdPk
attr title  "packets received, sum(packetBytes)"
scalar SemiDecentralized.host[11].udp 	sentPk:count 	30
attr interpolationmode  none
attr source  sentPk
attr title  "packets sent, count"
scalar SemiDecentralized.host[11].udp 	sentPk:sum(packetBytes) 	15600
attr interpolationmode  none
attr source  sentPk
attr title  "packets sent, sum(packetBytes)"
statistic SemiDecentralized.host[11].aodv 	NumSentAODVPackets
field count 30
field mean 15.5
field stddev 8.8034084308295
field sum 465
field sqrsum 9455
field min 1
field max 30
statistic SemiDecentralized.host[11].aodv 	NumReceivedAODVPackets
field count 30
field mean 15.5
field stddev 8.8034084308295
field sum 465
field sqrsum 9455
field min 1
field max 30
scalar SemiDecentralized.host[11].aodv 	"Number of LinkBreaks" 	0
scalar SemiDecentralized.host[11].aodv 	RERRSentNow 	0
scalar SemiDecentralized.host[11].rsmgmnt 	"Number Received RouteResponses" 	30
scalar SemiDecentralized.host[11].rsmgmnt 	"Number Sent RREQs" 	30
scalar SemiDecentralized.host[12].wlan[0].mac 	"number of receiveunsigned d packets" 	51
scalar SemiDecentralized.host[12].wlan[0].mac 	"number of collisions" 	24
scalar SemiDecentralized.host[12].wlan[0].mac 	"number of internal collisions" 	0
scalar SemiDecentralized.host[12].wlan[0].mac 	"number of retry for AC 0" 	5
scalar SemiDecentralized.host[12].wlan[0].mac 	"sent and received bits" 	397792
scalar SemiDecentralized.host[12].wlan[0].mac 	"sent packet within AC 0" 	30
scalar SemiDecentralized.host[12].wlan[0].mac 	"sent in TXOP " 	0
scalar SemiDecentralized.host[12].wlan[0].mac 	"sentWithoutRetry AC 0" 	28
scalar SemiDecentralized.host[12].wlan[0].mac 	"numGivenUp AC 0" 	0
scalar SemiDecentralized.host[12].wlan[0].mac 	"numDropped AC 0" 	0
scalar SemiDecentralized.host[12].wlan[0].radio 	lossRate:min 	0
attr interpolationmode  backward-sample-hold
attr title  "packet loss rate, min"
scalar SemiDecentralized.host[12].wlan[0].radio 	lossRate:max 	0.06
attr interpolationmode  backward-sample-hold
attr title  "packet loss rate, max"
scalar SemiDecentralized.host[12].wlan[0].radio 	lossRate:timeavg 	0.0040991075335321
attr interpolationmode  backward-sample-hold
attr title  "packet loss rate, timeavg"
statistic SemiDecentralized.host[12].wlan[0].radio 	channelNo:histogram
field count 1
field mean 0
field stddev -nan
field sum 0
field sqrsum 0
field min 0
field max 0
attr interpolationmode  sample-hold
attr title  "channel no, histogram"
bin	-INF	0
bin	-0.5	0
bin	-0.46666666666667	0
bin	-0.43333333333333	0
bin	-0.4	0
bin	-0.36666666666667	0
bin	-0.33333333333333	0
bin	-0.3	0
bin	-0.26666666666667	0
bin	-0.23333333333333	0
bin	-0.2	0
bin	-0.16666666666667	0
bin	-0.13333333333333	0
bin	-0.1	0
bin	-0.066666666666667	0
bin	-0.033333333333333	0
bin	0	1
bin	0.033333333333333	0
bin	0.066666666666667	0
bin	0.1	0
bin	0.13333333333333	0
bin	0.16666666666667	0
bin	0.2	0
bin	0.23333333333333	0
bin	0.26666666666667	0
bin	0.3	0
bin	0.33333333333333	0
bin	0.36666666666667	0
bin	0.4	0
bin	0.43333333333333	0
bin	0.46666666666667	0
bin	0.5	0
scalar SemiDecentralized.host[12].wlan[0].radio 	bitrate:min 	54000000
attr interpolationmode  sample-hold
attr title  "tx bitrate, min"
attr unit  bps
scalar SemiDecentralized.host[12].wlan[0].radio 	bitrate:max 	54000000
attr interpolationmode  sample-hold
attr title  "tx bitrate, max"
attr unit  bps
scalar SemiDecentralized.host[12].wlan[0].radio 	bitrate:timeavg 	54000000
attr interpolationmode  sample-hold
attr title  "tx bitrate, timeavg"
attr unit  bps
statistic SemiDecentralized.host[12].udpApp[0] 	endToEndDelay:histogram
field count 20
field mean 0.00519719340135
field stddev 0.0015174262522005
field sum 0.103943868027
field sqrsum 0.0005839654512072
field min 0.002939614516
field max 0.00768701491
attr interpolationmode  none
attr source  messageAge(rcvdPk)
attr title  "end-to-end delay, histogram"
attr unit  s
bin	-INF	0
bin	0.000565914319	0
bin	0.0008824076786	0
bin	0.0011989010382	0
bin	0.0015153943978	0
bin	0.0018318877574	0
bin	0.002148381117	0
bin	0.0024648744766	0
bin	0.0027813678362	3
bin	0.0030978611958	0
bin	0.0034143545554	1
bin	0.003730847915	2
bin	0.0040473412746	1
bin	0.0043638346342	1
bin	0.0046803279938	2
bin	0.0049968213534	1
bin	0.005313314713	1
bin	0.0056298080726	1
bin	0.0059463014322	0
bin	0.0062627947918	1
bin	0.0065792881514	3
bin	0.006895781511	2
bin	0.0072122748706	0
bin	0.0075287682302	1
bin	0.0078452615898	0
bin	0.0081617549494	0
bin	0.008478248309	0
bin	0.0087947416686	0
bin	0.0091112350282	0
bin	0.0094277283878	0
bin	0.0097442217474	0
bin	0.010060715107	0
scalar SemiDecentralized.host[12].udp 	droppedPkBadChecksum:count 	0
attr interpolationmode  none
attr title  "packets dropped (checksum error), count"
scalar SemiDecentralized.host[12].udp 	droppedPkWrongPort:count 	0
attr interpolationmode  none
attr title  "packets dropped (wrong port), count"
scalar SemiDecentralized.host[12].udp 	passedUpPk:count 	20
attr interpolationmode  none
attr title  "packets passed up, count"
scalar SemiDecentralized.host[12].udp 	rcvdPk:count 	20
attr interpolationmode  none
attr source  rcvdPk
attr title  "packets received, count"
scalar SemiDecentralized.host[12].udp 	rcvdPk:sum(packetBytes) 	10400
attr interpolationmode  none
attr source  rcvdPk
attr title  "packets received, sum(packetBytes)"
scalar SemiDecentralized.host[12].udp 	sentPk:count 	0
attr interpolationmode  none
attr source  sentPk
attr title  "packets sent, count"
scalar SemiDecentralized.host[12].udp 	sentPk:sum(packetBytes) 	0
attr interpolationmode  none
attr source  sentPk
attr title  "packets sent, sum(packetBytes)"
statistic SemiDecentralized.host[12].aodv 	NumSentAODVPackets
field count 31
field mean 16
field stddev 9.0921211313239
field sum 496
field sqrsum 10416
field min 1
field max 31
statistic SemiDecentralized.host[12].aodv 	NumReceivedAODVPackets
field count 1
field mean 1
field stddev -nan
field sum 1
field sqrsum 1
field min 1
field max 1
scalar SemiDecentralized.host[12].aodv 	"Number of LinkBreaks" 	0
scalar SemiDecentralized.host[12].aodv 	RERRSentNow 	1
scalar SemiDecentralized.host[12].rsmgmnt 	"Number Received RouteResponses" 	1
scalar SemiDecentralized.host[12].rsmgmnt 	"Number Sent RREQs" 	1
scalar SemiDecentralized.host[13].wlan[0].mac 	"number of receiveunsigned d packets" 	0
scalar SemiDecentralized.host[13].wlan[0].mac 	"number of collisions" 	15
scalar SemiDecentralized.host[13].wlan[0].mac 	"number of internal collisions" 	0
scalar SemiDecentralized.host[13].wlan[0].mac 	"number of retry for AC 0" 	0
scalar SemiDecentralized.host[13].wlan[0].mac 	"sent and received bits" 	396112
scalar SemiDecentralized.host[13].wlan[0].mac 	"sent packet within AC 0" 	30
scalar SemiDecentralized.host[13].wlan[0].mac 	"sent in TXOP " 	0
scalar SemiDecentralized.host[13].wlan[0].mac 	"sentWithoutRetry AC 0" 	30
scalar SemiDecentralized.host[13].wlan[0].mac 	"numGivenUp AC 0" 	0
scalar SemiDecentralized.host[13].wlan[0].mac 	"numDropped AC 0" 	0
scalar SemiDecentralized.host[13].wlan[0].radio 	lossRate:min 	0
attr interpolationmode  backward-sample-hold
attr title  "packet loss rate, min"
scalar SemiDecentralized.host[13].wlan[0].radio 	lossRate:max 	0.08
attr interpolationmode  backward-sample-hold
attr title  "packet loss rate, max"
scalar SemiDecentralized.host[13].wlan[0].radio 	lossRate:timeavg 	0.0027250629850016
attr interpolationmode  backward-sample-hold
attr title  "packet loss rate, timeavg"
statistic SemiDecentralized.host[13].wlan[0].radio 	channelNo:histogram
field count 1
field mean 0
field stddev -nan
field sum 0
field sqrsum 0
field min 0
field max 0
attr interpolationmode  sample-hold
attr title  "channel no, histogram"
bin	-INF	0
bin	-0.5	0
bin	-0.46666666666667	0
bin	-0.43333333333333	0
bin	-0.4	0
bin	-0.36666666666667	0
bin	-0.33333333333333	0
bin	-0.3	0
bin	-0.26666666666667	0
bin	-0.23333333333333	0
bin	-0.2	0
bin	-0.16666666666667	0
bin	-0.13333333333333	0
bin	-0.1	0
bin	-0.066666666666667	0
bin	-0.033333333333333	0
bin	0	1
bin	0.033333333333333	0
bin	0.066666666666667	0
bin	0.1	0
bin	0.13333333333333	0
bin	0.16666666666667	0
bin	0.2	0
bin	0.23333333333333	0
bin	0.26666666666667	0
bin	0.3	0
bin	0.33333333333333	0
bin	0.36666666666667	0
bin	0.4	0
bin	0.43333333333333	0
bin	0.46666666666667	0
bin	0.5	0
scalar SemiDecentralized.host[13].wlan[0].radio 	bitrate:min 	54000000
attr interpolationmode  sample-hold
attr title  "tx bitrate, min"
attr unit  bps
scalar SemiDecentralized.host[13].wlan[0].radio 	bitrate:max 	54000000
attr interpolationmode  sample-hold
attr title  "tx bitrate, max"
attr unit  bps
scalar SemiDecentralized.host[13].wlan[0].radio 	bitrate:timeavg 	54000000
attr interpolationmode  sample-hold
attr title  "tx bitrate, timeavg"
attr unit  bps
scalar SemiDecentralized.host[13].udpApp[0] 	"packets sent" 	30
scalar SemiDecentralized.host[13].udpApp[0] 	"packets received" 	0
statistic SemiDecentralized.host[13].udpApp[0] 	rcvdPkLifetime:stats
field count 0
field mean -nan
field stddev -nan
field sum 0
field sqrsum 0
field min -nan
field max -nan
attr interpolationmode  none
attr source  messageAge(rcvdPk)
attr title  "received packet lifetime, stats"
attr unit  s
scalar SemiDecentralized.host[13].udp 	droppedPkBadChecksum:count 	0
attr interpolationmode  none
attr title  "packets dropped (checksum error), count"
scalar SemiDecentralized.host[13].udp 	droppedPkWrongPort:count 	0
attr interpolationmode  none
attr title  "packets dropped (wrong port), count"
scalar SemiDecentralized.host[13].udp 	passedUpPk:count 	0
attr interpolationmode  none
attr title  "packets passed up, count"
scalar SemiDecentralized.host[13].udp 	rcvdPk:count 	0
attr interpolationmode  none
attr source  rcvdPk
attr title  "packets received, count"
scalar SemiDecentralized.host[13].udp 	rcvdPk:sum(packetBytes) 	0
attr interpolationmode  none
attr source  rcvdPk
attr title  "packets received, sum(packetBytes)"
scalar SemiDecentralized.host[13].udp 	sentPk:count 	30
attr interpolationmode  none
attr source  sentPk
attr title  "packets sent, count"
scalar SemiDecentralized.host[13].udp 	sentPk:sum(packetBytes) 	15600
attr interpolationmode  none
attr source  sentPk
attr title  "packets sent, sum(packetBytes)"
statistic SemiDecentralized.host[13].aodv 	NumSentAODVPackets
field count 30
field mean 15.5
field stddev 8.8034084308295
field sum 465
field sqrsum 9455
field min 1
field max 30
statistic SemiDecentralized.host[13].aodv 	NumReceivedAODVPackets
field count 30
field mean 15.5
field stddev 8.8034084308295
field sum 465
field sqrsum 9455
field min 1
field max 30
scalar SemiDecentralized.host[13].aodv 	"Number of LinkBreaks" 	0
scalar SemiDecentralized.host[13].aodv 	RERRSentNow 	0
scalar SemiDecentralized.host[13].rsmgmnt 	"Number Received RouteResponses" 	30
scalar SemiDecentralized.host[13].rsmgmnt 	"Number Sent RREQs" 	30
scalar SemiDecentralized.host[14].wlan[0].mac 	"number of receiveunsigned d packets" 	121
scalar SemiDecentralized.host[14].wlan[0].mac 	"number of collisions" 	69
scalar SemiDecentralized.host[14].wlan[0].mac 	"number of internal collisions" 	0
scalar SemiDecentralized.host[14].wlan[0].mac 	"number of retry for AC 0" 	3
scalar SemiDecentralized.host[14].wlan[0].mac 	"sent and received bits" 	678640
scalar SemiDecentralized.host[14].wlan[0].mac 	"sent packet within AC 0" 	91
scalar SemiDecentralized.host[14].wlan[0].mac 	"sent in TXOP " 	0
scalar SemiDecentralized.host[14].wlan[0].mac 	"sentWithoutRetry AC 0" 	89
scalar SemiDecentralized.host[14].wlan[0].mac 	"numGivenUp AC 0" 	0
scalar SemiDecentralized.host[14].wlan[0].mac 	"numDropped AC 0" 	0
scalar SemiDecentralized.host[14].wlan[0].radio 	lossRate:min 	0
attr interpolationmode  backward-sample-hold
attr title  "packet loss rate, min"
scalar SemiDecentralized.host[14].wlan[0].radio 	lossRate:max 	0.06
attr interpolationmode  backward-sample-hold
attr title  "packet loss rate, max"
scalar SemiDecentralized.host[14].wlan[0].radio 	lossRate:timeavg 	0.0075831304996895
attr interpolationmode  backward-sample-hold
attr title  "packet loss rate, timeavg"
statistic SemiDecentralized.host[14].wlan[0].radio 	channelNo:histogram
field count 1
field mean 0
field stddev -nan
field sum 0
field sqrsum 0
field min 0
field max 0
attr interpolationmode  sample-hold
attr title  "channel no, histogram"
bin	-INF	0
bin	-0.5	0
bin	-0.46666666666667	0
bin	-0.43333333333333	0
bin	-0.4	0
bin	-0.36666666666667	0
bin	-0.33333333333333	0
bin	-0.3	0
bin	-0.26666666666667	0
bin	-0.23333333333333	0
bin	-0.2	0
bin	-0.16666666666667	0
bin	-0.13333333333333	0
bin	-0.1	0
bin	-0.066666666666667	0
bin	-0.033333333333333	0
bin	0	1
bin	0.033333333333333	0
bin	0.066666666666667	0
bin	0.1	0
bin	0.13333333333333	0
bin	0.16666666666667	0
bin	0.2	0
bin	0.23333333333333	0
bin	0.26666666666667	0
bin	0.3	0
bin	0.33333333333333	0
bin	0.36666666666667	0
bin	0.4	0
bin	0.43333333333333	0
bin	0.46666666666667	0
bin	0.5	0
scalar SemiDecentralized.host[14].wlan[0].radio 	bitrate:min 	54000000
attr interpolationmode  sample-hold
attr title  "tx bitrate, min"
attr unit  bps
scalar SemiDecentralized.host[14].wlan[0].radio 	bitrate:max 	54000000
attr interpolationmode  sample-hold
attr title  "tx bitrate, max"
attr unit  bps
scalar SemiDecentralized.host[14].wlan[0].radio 	bitrate:timeavg 	54000000
attr interpolationmode  sample-hold
attr title  "tx bitrate, timeavg"
attr unit  bps
statistic SemiDecentralized.host[14].udpApp[0] 	endToEndDelay:histogram
field count 30
field mean 0.0038610933425667
field stddev 0.0013459329314797
field sum 0.115832800277
field sqrsum 0.00049977578222558
field min 0.001809266556
field max 0.006429220639
attr interpolationmode  none
attr source  messageAge(rcvdPk)
attr title  "end-to-end delay, histogram"
attr unit  s
bin	-INF	0
bin	-0.0005007104855	0
bin	-0.00019271354663333	0
bin	0.00011528339223333	0
bin	0.0004232803311	0
bin	0.00073127726996667	0
bin	0.0010392742088333	0
bin	0.0013472711477	0
bin	0.0016552680865667	2
bin	0.0019632650254333	1
bin	0.0022712619643	3
bin	0.0025792589031667	5
bin	0.0028872558420333	0
bin	0.0031952527809	1
bin	0.0035032497197667	2
bin	0.0038112466586333	4
bin	0.0041192435975	1
bin	0.0044272405363667	1
bin	0.0047352374752333	5
bin	0.0050432344141	1
bin	0.0053512313529667	0
bin	0.0056592282918333	2
bin	0.0059672252307	1
bin	0.0062752221695667	1
bin	0.0065832191084333	0
bin	0.0068912160473	0
bin	0.0071992129861667	0
bin	0.0075072099250333	0
bin	0.0078152068639	0
bin	0.0081232038027667	0
bin	0.0084312007416333	0
bin	0.0087391976805	0
scalar SemiDecentralized.host[14].udp 	droppedPkBadChecksum:count 	0
attr interpolationmode  none
attr title  "packets dropped (checksum error), count"
scalar SemiDecentralized.host[14].udp 	droppedPkWrongPort:count 	0
attr interpolationmode  none
attr title  "packets dropped (wrong port), count"
scalar SemiDecentralized.host[14].udp 	passedUpPk:count 	30
attr interpolationmode  none
attr title  "packets passed up, count"
scalar SemiDecentralized.host[14].udp 	rcvdPk:count 	30
attr interpolationmode  none
attr source  rcvdPk
attr title  "packets received, count"
scalar SemiDecentralized.host[14].udp 	rcvdPk:sum(packetBytes) 	15600
attr interpolationmode  none
attr source  rcvdPk
attr title  "packets received, sum(packetBytes)"
scalar SemiDecentralized.host[14].udp 	sentPk:count 	0
attr interpolationmode  none
attr source  sentPk
attr title  "packets sent, count"
scalar SemiDecentralized.host[14].udp 	sentPk:sum(packetBytes) 	0
attr interpolationmode  none
attr source  sentPk
attr title  "packets sent, sum(packetBytes)"
statistic SemiDecentralized.host[14].aodv 	NumSentAODVPackets
field count 91
field mean 46
field stddev 26.413380447543
field sum 4186
field sqrsum 255346
field min 1
field max 91
statistic SemiDecentralized.host[14].aodv 	NumReceivedAODVPackets
field count 0
field mean -nan
field stddev -nan
field sum 0
field sqrsum 0
field min -nan
field max -nan
scalar SemiDecentralized.host[14].aodv 	"Number of LinkBreaks" 	0
scalar SemiDecentralized.host[14].aodv 	RERRSentNow 	0
scalar SemiDecentralized.host[14].rsmgmnt 	"Number Received RouteResponses" 	0
scalar SemiDecentralized.host[14].rsmgmnt 	"Number Sent RREQs" 	0
scalar SemiDecentralized.host[15].wlan[0].mac 	"number of receiveunsigned d packets" 	1
scalar SemiDecentralized.host[15].wlan[0].mac 	"number of collisions" 	12
scalar SemiDecentralized.host[15].wlan[0].mac 	"number of internal collisions" 	0
scalar SemiDecentralized.host[15].wlan[0].mac 	"number of retry for AC 0" 	1
scalar SemiDecentralized.host[15].wlan[0].mac 	"sent and received bits" 	399776
scalar SemiDecentralized.host[15].wlan[0].mac 	"sent packet within AC 0" 	31
scalar SemiDecentralized.host[15].wlan[0].mac 	"sent in TXOP " 	0
scalar SemiDecentralized.host[15].wlan[0].mac 	"sentWithoutRetry AC 0" 	30
scalar SemiDecentralized.host[15].wlan[0].mac 	"numGivenUp AC 0" 	0
scalar SemiDecentralized.host[15].wlan[0].mac 	"numDropped AC 0" 	0
scalar SemiDecentralized.host[15].wlan[0].radio 	lossRate:min 	0
attr interpolationmode  backward-sample-hold
attr title  "packet loss rate, min"
scalar SemiDecentralized.host[15].wlan[0].radio 	lossRate:max 	0.04
attr interpolationmode  backward-sample-hold
attr title  "packet loss rate, max"
scalar SemiDecentralized.host[15].wlan[0].radio 	lossRate:timeavg 	0.0026895700983988
attr interpolationmode  backward-sample-hold
attr title  "packet loss rate, timeavg"
statistic SemiDecentralized.host[15].wlan[0].radio 	channelNo:histogram
field count 1
field mean 0
field stddev -nan
field sum 0
field sqrsum 0
field min 0
field max 0
attr interpolationmode  sample-hold
attr title  "channel no, histogram"
bin	-INF	0
bin	-0.5	0
bin	-0.46666666666667	0
bin	-0.43333333333333	0
bin	-0.4	0
bin	-0.36666666666667	0
bin	-0.33333333333333	0
bin	-0.3	0
bin	-0.26666666666667	0
bin	-0.23333333333333	0
bin	-0.2	0
bin	-0.16666666666667	0
bin	-0.13333333333333	0
bin	-0.1	0
bin	-0.066666666666667	0
bin	-0.033333333333333	0
bin	0	1
bin	0.033333333333333	0
bin	0.066666666666667	0
bin	0.1	0
bin	0.13333333333333	0
bin	0.16666666666667	0
bin	0.2	0
bin	0.23333333333333	0
bin	0.26666666666667	0
bin	0.3	0
bin	0.33333333333333	0
bin	0.36666666666667	0
bin	0.4	0
bin	0.43333333333333	0
bin	0.46666666666667	0
bin	0.5	0
scalar SemiDecentralized.host[15].wlan[0].radio 	bitrate:min 	54000000
attr interpolationmode  sample-hold
attr title  "tx bitrate, min"
attr unit  bps
scalar SemiDecentralized.host[15].wlan[0].radio 	bitrate:max 	54000000
attr interpolationmode  sample-hold
attr title  "tx bitrate, max"
attr unit  bps
scalar SemiDecentralized.host[15].wlan[0].radio 	bitrate:timeavg 	54000000
attr interpolationmode  sample-hold
attr title  "tx bitrate, timeavg"
attr unit  bps
scalar SemiDecentralized.host[15].udpApp[0] 	"packets sent" 	30
scalar SemiDecentralized.host[15].udpApp[0] 	"packets received" 	0
statistic SemiDecentralized.host[15].udpApp[0] 	rcvdPkLifetime:stats
field count 0
field mean -nan
field stddev -nan
field sum 0
field sqrsum 0
field min -nan
field max -nan
attr interpolationmode  none
attr source  messageAge(rcvdPk)
attr title  "received packet lifetime, stats"
attr unit  s
scalar SemiDecentralized.host[15].udp 	droppedPkBadChecksum:count 	0
attr interpolationmode  none
attr title  "packets dropped (checksum error), count"
scalar SemiDecentralized.host[15].udp 	droppedPkWrongPort:count 	0
attr interpolationmode  none
attr title  "packets dropped (wrong port), count"
scalar SemiDecentralized.host[15].udp 	passedUpPk:count 	0
attr interpolationmode  none
attr title  "packets passed up, count"
scalar SemiDecentralized.host[15].udp 	rcvdPk:count 	0
attr interpolationmode  none
attr source  rcvdPk
attr title  "packets received, count"
scalar SemiDecentralized.host[15].udp 	rcvdPk:sum(packetBytes) 	0
attr interpolationmode  none
attr source  rcvdPk
attr title  "packets received, sum(packetBytes)"
scalar SemiDecentralized.host[15].udp 	sentPk:count 	30
attr interpolationmode  none
attr source  sentPk
attr title  "packets sent, count"
scalar SemiDecentralized.host[15].udp 	sentPk:sum(packetBytes) 	15600
attr interpolationmode  none
attr source  sentPk
attr title  "packets sent, sum(packetBytes)"
statistic SemiDecentralized.host[15].aodv 	NumSentAODVPackets
field count 31
field mean 16
field stddev 9.0921211313239
field sum 496
field sqrsum 10416
field min 1
field max 31
statistic SemiDecentralized.host[15].aodv 	NumReceivedAODVPackets
field count 30
field mean 15.5
field stddev 8.8034084308295
field sum 465
field sqrsum 9455
field min 1
field max 30
scalar SemiDecentralized.host[15].aodv 	"Number of LinkBreaks" 	0
scalar SemiDecentralized.host[15].aodv 	RERRSentNow 	0
scalar SemiDecentralized.host[15].rsmgmnt 	"Number Received RouteResponses" 	30
scalar SemiDecentralized.host[15].rsmgmnt 	"Number Sent RREQs" 	30
scalar SemiDecentralized.host[16].wlan[0].mac 	"number of receiveunsigned d packets" 	30
scalar SemiDecentralized.host[16].wlan[0].mac 	"number of collisions" 	15
scalar SemiDecentralized.host[16].wlan[0].mac 	"number of internal collisions" 	0
scalar SemiDecentralized.host[16].wlan[0].mac 	"number of retry for AC 0" 	0
scalar SemiDecentralized.host[16].wlan[0].mac 	"sent and received bits" 	255440
scalar SemiDecentralized.host[16].wlan[0].mac 	"sent packet within AC 0" 	0
scalar SemiDecentralized.host[16].wlan[0].mac 	"sent in TXOP " 	0
scalar SemiDecentralized.host[16].wlan[0].mac 	"sentWithoutRetry AC 0" 	0
scalar SemiDecentralized.host[16].wlan[0].mac 	"numGivenUp AC 0" 	0
scalar SemiDecentralized.host[16].wlan[0].mac 	"numDropped AC 0" 	0
[...]
scalar SemiDecentralized.host[59].wlan[0].mac 	"sent and received bits" 	534800
scalar SemiDecentralized.host[59].wlan[0].mac 	"sent packet within AC 0" 	60
scalar SemiDecentralized.host[59].wlan[0].mac 	"sent in TXOP " 	0
scalar SemiDecentralized.host[59].wlan[0].mac 	"sentWithoutRetry AC 0" 	59
scalar SemiDecentralized.host[59].wlan[0].mac 	"numGivenUp AC 0" 	0
scalar SemiDecentralized.host[59].wlan[0].mac 	"numDropped AC 0" 	0
scalar SemiDecentralized.host[59].wlan[0].radio 	lossRate:min 	0
attr interpolationmode  backward-sample-hold
attr title  "packet loss rate, min"
scalar SemiDecentralized.host[59].wlan[0].radio 	lossRate:max 	0.08
attr interpolationmode  backward-sample-hold
attr title  "packet loss rate, max"
scalar SemiDecentralized.host[59].wlan[0].radio 	lossRate:timeavg 	0.010849347786234
attr interpolationmode  backward-sample-hold
attr title  "packet loss rate, timeavg"
statistic SemiDecentralized.host[59].wlan[0].radio 	channelNo:histogram
field count 1
field mean 0
field stddev -nan
field sum 0
field sqrsum 0
field min 0
field max 0
attr interpolationmode  sample-hold
attr title  "channel no, histogram"
bin	-INF	0
bin	-0.5	0
bin	-0.46666666666667	0
bin	-0.43333333333333	0
bin	-0.4	0
bin	-0.36666666666667	0
bin	-0.33333333333333	0
bin	-0.3	0
bin	-0.26666666666667	0
bin	-0.23333333333333	0
bin	-0.2	0
bin	-0.16666666666667	0
bin	-0.13333333333333	0
bin	-0.1	0
bin	-0.066666666666667	0
bin	-0.033333333333333	0
bin	0	1
bin	0.033333333333333	0
bin	0.066666666666667	0
bin	0.1	0
bin	0.13333333333333	0
bin	0.16666666666667	0
bin	0.2	0
bin	0.23333333333333	0
bin	0.26666666666667	0
bin	0.3	0
bin	0.33333333333333	0
bin	0.36666666666667	0
bin	0.4	0
bin	0.43333333333333	0
bin	0.46666666666667	0
bin	0.5	0
scalar SemiDecentralized.host[59].wlan[0].radio 	bitrate:min 	54000000
attr interpolationmode  sample-hold
attr title  "tx bitrate, min"
attr unit  bps
scalar SemiDecentralized.host[59].wlan[0].radio 	bitrate:max 	54000000
attr interpolationmode  sample-hold
attr title  "tx bitrate, max"
attr unit  bps
scalar SemiDecentralized.host[59].wlan[0].radio 	bitrate:timeavg 	54000000
attr interpolationmode  sample-hold
attr title  "tx bitrate, timeavg"
attr unit  bps
scalar SemiDecentralized.host[59].udpApp[0] 	"packets sent" 	30
scalar SemiDecentralized.host[59].udpApp[0] 	"packets received" 	0
statistic SemiDecentralized.host[59].udpApp[0] 	rcvdPkLifetime:stats
field count 0
field mean -nan
field stddev -nan
field sum 0
field sqrsum 0
field min -nan
field max -nan
attr interpolationmode  none
attr source  messageAge(rcvdPk)
attr title  "received packet lifetime, stats"
attr unit  s
scalar SemiDecentralized.host[59].udp 	droppedPkBadChecksum:count 	0
attr interpolationmode  none
attr title  "packets dropped (checksum error), count"
scalar SemiDecentralized.host[59].udp 	droppedPkWrongPort:count 	0
attr interpolationmode  none
attr title  "packets dropped (wrong port), count"
scalar SemiDecentralized.host[59].udp 	passedUpPk:count 	0
attr interpolationmode  none
attr title  "packets passed up, count"
scalar SemiDecentralized.host[59].udp 	rcvdPk:count 	0
attr interpolationmode  none
attr source  rcvdPk
attr title  "packets received, count"
scalar SemiDecentralized.host[59].udp 	rcvdPk:sum(packetBytes) 	0
attr interpolationmode  none
attr source  rcvdPk
attr title  "packets received, sum(packetBytes)"
scalar SemiDecentralized.host[59].udp 	sentPk:count 	30
attr interpolationmode  none
attr source  sentPk
attr title  "packets sent, count"
scalar SemiDecentralized.host[59].udp 	sentPk:sum(packetBytes) 	15600
attr interpolationmode  none
attr source  sentPk
attr title  "packets sent, sum(packetBytes)"
statistic SemiDecentralized.host[59].aodv 	NumSentAODVPackets
field count 71
field mean 36
field stddev 20.63976744055
field sum 2556
field sqrsum 121836
field min 1
field max 71
statistic SemiDecentralized.host[59].aodv 	NumReceivedAODVPackets
field count 30
field mean 15.5
field stddev 8.8034084308295
field sum 465
field sqrsum 9455
field min 1
field max 30
scalar SemiDecentralized.host[59].aodv 	"Number of LinkBreaks" 	0
scalar SemiDecentralized.host[59].aodv 	RERRSentNow 	0
scalar SemiDecentralized.host[59].rsmgmnt 	"Number Received RouteResponses" 	30
scalar SemiDecentralized.host[59].rsmgmnt 	"Number Sent RREQs" 	30
scalar SemiDecentralized.host[60].wlan[0].mac 	"number of receiveunsigned d packets" 	0
scalar SemiDecentralized.host[60].wlan[0].mac 	"number of collisions" 	12
scalar SemiDecentralized.host[60].wlan[0].mac 	"number of internal collisions" 	0
scalar SemiDecentralized.host[60].wlan[0].mac 	"number of retry for AC 0" 	0
scalar SemiDecentralized.host[60].wlan[0].mac 	"sent and received bits" 	254944
scalar SemiDecentralized.host[60].wlan[0].mac 	"sent packet within AC 0" 	0
scalar SemiDecentralized.host[60].wlan[0].mac 	"sent in TXOP " 	0
scalar SemiDecentralized.host[60].wlan[0].mac 	"sentWithoutRetry AC 0" 	0
scalar SemiDecentralized.host[60].wlan[0].mac 	"numGivenUp AC 0" 	0
scalar SemiDecentralized.host[60].wlan[0].mac 	"numDropped AC 0" 	0
scalar SemiDecentralized.host[60].wlan[0].radio 	lossRate:min 	0
attr interpolationmode  backward-sample-hold
attr title  "packet loss rate, min"
scalar SemiDecentralized.host[60].wlan[0].radio 	lossRate:max 	0.04
attr interpolationmode  backward-sample-hold
attr title  "packet loss rate, max"
scalar SemiDecentralized.host[60].wlan[0].radio 	lossRate:timeavg 	0.0036890778796337
attr interpolationmode  backward-sample-hold
attr title  "packet loss rate, timeavg"
statistic SemiDecentralized.host[60].wlan[0].radio 	channelNo:histogram
field count 1
field mean 0
field stddev -nan
field sum 0
field sqrsum 0
field min 0
field max 0
attr interpolationmode  sample-hold
attr title  "channel no, histogram"
bin	-INF	0
bin	-0.5	0
bin	-0.46666666666667	0
bin	-0.43333333333333	0
bin	-0.4	0
bin	-0.36666666666667	0
bin	-0.33333333333333	0
bin	-0.3	0
bin	-0.26666666666667	0
bin	-0.23333333333333	0
bin	-0.2	0
bin	-0.16666666666667	0
bin	-0.13333333333333	0
bin	-0.1	0
bin	-0.066666666666667	0
bin	-0.033333333333333	0
bin	0	1
bin	0.033333333333333	0
bin	0.066666666666667	0
bin	0.1	0
bin	0.13333333333333	0
bin	0.16666666666667	0
bin	0.2	0
bin	0.23333333333333	0
bin	0.26666666666667	0
bin	0.3	0
bin	0.33333333333333	0
bin	0.36666666666667	0
bin	0.4	0
bin	0.43333333333333	0
bin	0.46666666666667	0
bin	0.5	0
scalar SemiDecentralized.host[60].wlan[0].radio 	bitrate:min 	54000000
attr interpolationmode  sample-hold
attr title  "tx bitrate, min"
attr unit  bps
scalar SemiDecentralized.host[60].wlan[0].radio 	bitrate:max 	54000000
attr interpolationmode  sample-hold
attr title  "tx bitrate, max"
attr unit  bps
scalar SemiDecentralized.host[60].wlan[0].radio 	bitrate:timeavg 	54000000
attr interpolationmode  sample-hold
attr title  "tx bitrate, timeavg"
attr unit  bps
statistic SemiDecentralized.host[60].aodv 	NumSentAODVPackets
field count 0
field mean -nan
field stddev -nan
field sum 0
field sqrsum 0
field min -nan
field max -nan
statistic SemiDecentralized.host[60].aodv 	NumReceivedAODVPackets
field count 0
field mean -nan
field stddev -nan
field sum 0
field sqrsum 0
field min -nan
field max -nan
scalar SemiDecentralized.host[60].aodv 	"Number of LinkBreaks" 	0
scalar SemiDecentralized.host[60].aodv 	RERRSentNow 	0
scalar SemiDecentralized.host[60].rsmgmnt 	"Number Received RouteResponses" 	0
scalar SemiDecentralized.host[60].rsmgmnt 	"Number Sent RREQs" 	0
scalar SemiDecentralized.host[61].wlan[0].mac 	"number of receiveunsigned d packets" 	125
scalar SemiDecentralized.host[61].wlan[0].mac 	"number of collisions" 	84
scalar SemiDecentralized.host[61].wlan[0].mac 	"number of internal collisions" 	0
scalar SemiDecentralized.host[61].wlan[0].mac 	"number of retry for AC 0" 	0
scalar SemiDecentralized.host[61].wlan[0].mac 	"sent and received bits" 	633072
scalar SemiDecentralized.host[61].wlan[0].mac 	"sent packet within AC 0" 	81
scalar SemiDecentralized.host[61].wlan[0].mac 	"sent in TXOP " 	0
scalar SemiDecentralized.host[61].wlan[0].mac 	"sentWithoutRetry AC 0" 	81
scalar SemiDecentralized.host[61].wlan[0].mac 	"numGivenUp AC 0" 	0
scalar SemiDecentralized.host[61].wlan[0].mac 	"numDropped AC 0" 	0
scalar SemiDecentralized.host[61].wlan[0].radio 	lossRate:min 	0
attr interpolationmode  backward-sample-hold
attr title  "packet loss rate, min"
scalar SemiDecentralized.host[61].wlan[0].radio 	lossRate:max 	0.1
attr interpolationmode  backward-sample-hold
attr title  "packet loss rate, max"
scalar SemiDecentralized.host[61].wlan[0].radio 	lossRate:timeavg 	0.010918655125406
attr interpolationmode  backward-sample-hold
attr title  "packet loss rate, timeavg"
statistic SemiDecentralized.host[61].wlan[0].radio 	channelNo:histogram
field count 1
field mean 0
field stddev -nan
field sum 0
field sqrsum 0
field min 0
field max 0
attr interpolationmode  sample-hold
attr title  "channel no, histogram"
bin	-INF	0
bin	-0.5	0
bin	-0.46666666666667	0
bin	-0.43333333333333	0
bin	-0.4	0
bin	-0.36666666666667	0
bin	-0.33333333333333	0
bin	-0.3	0
bin	-0.26666666666667	0
bin	-0.23333333333333	0
bin	-0.2	0
bin	-0.16666666666667	0
bin	-0.13333333333333	0
bin	-0.1	0
bin	-0.066666666666667	0
bin	-0.033333333333333	0
bin	0	1
bin	0.033333333333333	0
bin	0.066666666666667	0
bin	0.1	0
bin	0.13333333333333	0
bin	0.16666666666667	0
bin	0.2	0
bin	0.23333333333333	0
bin	0.26666666666667	0
bin	0.3	0
bin	0.33333333333333	0
bin	0.36666666666667	0
bin	0.4	0
bin	0.43333333333333	0
bin	0.46666666666667	0
bin	0.5	0
scalar SemiDecentralized.host[61].wlan[0].radio 	bitrate:min 	54000000
attr interpolationmode  sample-hold
attr title  "tx bitrate, min"
attr unit  bps
scalar SemiDecentralized.host[61].wlan[0].radio 	bitrate:max 	54000000
attr interpolationmode  sample-hold
attr title  "tx bitrate, max"
attr unit  bps
scalar SemiDecentralized.host[61].wlan[0].radio 	bitrate:timeavg 	54000000
attr interpolationmode  sample-hold
attr title  "tx bitrate, timeavg"
attr unit  bps
statistic SemiDecentralized.host[61].aodv 	NumSentAODVPackets
field count 125
field mean 63
field stddev 36.228441865474
field sum 7875
field sqrsum 658875
field min 1
field max 125
statistic SemiDecentralized.host[61].aodv 	NumReceivedAODVPackets
field count 0
field mean -nan
field stddev -nan
field sum 0
field sqrsum 0
field min -nan
field max -nan
scalar SemiDecentralized.host[61].aodv 	"Number of LinkBreaks" 	0
scalar SemiDecentralized.host[61].aodv 	RERRSentNow 	0
scalar SemiDecentralized.host[61].rsmgmnt 	"Number Received RouteResponses" 	0
scalar SemiDecentralized.host[61].rsmgmnt 	"Number Sent RREQs" 	0
scalar SemiDecentralized.host[62].wlan[0].mac 	"number of receiveunsigned d packets" 	1
scalar SemiDecentralized.host[62].wlan[0].mac 	"number of collisions" 	25
scalar SemiDecentralized.host[62].wlan[0].mac 	"number of internal collisions" 	0
scalar SemiDecentralized.host[62].wlan[0].mac 	"number of retry for AC 0" 	0
scalar SemiDecentralized.host[62].wlan[0].mac 	"sent and received bits" 	260592
scalar SemiDecentralized.host[62].wlan[0].mac 	"sent packet within AC 0" 	1
scalar SemiDecentralized.host[62].wlan[0].mac 	"sent in TXOP " 	0
scalar SemiDecentralized.host[62].wlan[0].mac 	"sentWithoutRetry AC 0" 	1
scalar SemiDecentralized.host[62].wlan[0].mac 	"numGivenUp AC 0" 	0
scalar SemiDecentralized.host[62].wlan[0].mac 	"numDropped AC 0" 	0
scalar SemiDecentralized.host[62].wlan[0].radio 	lossRate:min 	0
attr interpolationmode  backward-sample-hold
attr title  "packet loss rate, min"
scalar SemiDecentralized.host[62].wlan[0].radio 	lossRate:max 	0.08
attr interpolationmode  backward-sample-hold
attr title  "packet loss rate, max"
scalar SemiDecentralized.host[62].wlan[0].radio 	lossRate:timeavg 	0.0042726984630508
attr interpolationmode  backward-sample-hold
attr title  "packet loss rate, timeavg"
statistic SemiDecentralized.host[62].wlan[0].radio 	channelNo:histogram
field count 1
field mean 0
field stddev -nan
field sum 0
field sqrsum 0
field min 0
field max 0
attr interpolationmode  sample-hold
attr title  "channel no, histogram"
bin	-INF	0
bin	-0.5	0
bin	-0.46666666666667	0
bin	-0.43333333333333	0
bin	-0.4	0
bin	-0.36666666666667	0
bin	-0.33333333333333	0
bin	-0.3	0
bin	-0.26666666666667	0
bin	-0.23333333333333	0
bin	-0.2	0
bin	-0.16666666666667	0
bin	-0.13333333333333	0
bin	-0.1	0
bin	-0.066666666666667	0
bin	-0.033333333333333	0
bin	0	1
bin	0.033333333333333	0
bin	0.066666666666667	0
bin	0.1	0
bin	0.13333333333333	0
bin	0.16666666666667	0
bin	0.2	0
bin	0.23333333333333	0
bin	0.26666666666667	0
bin	0.3	0
bin	0.33333333333333	0
bin	0.36666666666667	0
bin	0.4	0
bin	0.43333333333333	0
bin	0.46666666666667	0
bin	0.5	0
scalar SemiDecentralized.host[62].wlan[0].radio 	bitrate:min 	54000000
attr interpolationmode  sample-hold
attr title  "tx bitrate, min"
attr unit  bps
scalar SemiDecentralized.host[62].wlan[0].radio 	bitrate:max 	54000000
attr interpolationmode  sample-hold
attr title  "tx bitrate, max"
attr unit  bps
scalar SemiDecentralized.host[62].wlan[0].radio 	bitrate:timeavg 	54000000
attr interpolationmode  sample-hold
attr title  "tx bitrate, timeavg"
attr unit  bps
statistic SemiDecentralized.host[62].aodv 	NumSentAODVPackets
field count 1
field mean 1
field stddev -nan
field sum 1
field sqrsum 1
field min 1
field max 1
statistic SemiDecentralized.host[62].aodv 	NumReceivedAODVPackets
field count 0
field mean -nan
field stddev -nan
field sum 0
field sqrsum 0
field min -nan
field max -nan
scalar SemiDecentralized.host[62].aodv 	"Number of LinkBreaks" 	0
scalar SemiDecentralized.host[62].aodv 	RERRSentNow 	0
scalar SemiDecentralized.host[62].rsmgmnt 	"Number Received RouteResponses" 	0
scalar SemiDecentralized.host[62].rsmgmnt 	"Number Sent RREQs" 	0
scalar SemiDecentralized.host[63].wlan[0].mac 	"number of receiveunsigned d packets" 	58
scalar SemiDecentralized.host[63].wlan[0].mac 	"number of collisions" 	115
scalar SemiDecentralized.host[63].wlan[0].mac 	"number of internal collisions" 	0
scalar SemiDecentralized.host[63].wlan[0].mac 	"number of retry for AC 0" 	0
scalar SemiDecentralized.host[63].wlan[0].mac 	"sent and received bits" 	524992
scalar SemiDecentralized.host[63].wlan[0].mac 	"sent packet within AC 0" 	58
scalar SemiDecentralized.host[63].wlan[0].mac 	"sent in TXOP " 	0
scalar SemiDecentralized.host[63].wlan[0].mac 	"sentWithoutRetry AC 0" 	58
scalar SemiDecentralized.host[63].wlan[0].mac 	"numGivenUp AC 0" 	0
scalar SemiDecentralized.host[63].wlan[0].mac 	"numDropped AC 0" 	0
scalar SemiDecentralized.host[63].wlan[0].radio 	lossRate:min 	0
attr interpolationmode  backward-sample-hold
attr title  "packet loss rate, min"
scalar SemiDecentralized.host[63].wlan[0].radio 	lossRate:max 	0.06
attr interpolationmode  backward-sample-hold
attr title  "packet loss rate, max"
scalar SemiDecentralized.host[63].wlan[0].radio 	lossRate:timeavg 	0.0098932815573542
attr interpolationmode  backward-sample-hold
attr title  "packet loss rate, timeavg"
statistic SemiDecentralized.host[63].wlan[0].radio 	channelNo:histogram
field count 1
field mean 0
field stddev -nan
field sum 0
field sqrsum 0
field min 0
field max 0
attr interpolationmode  sample-hold
attr title  "channel no, histogram"
bin	-INF	0
bin	-0.5	0
bin	-0.46666666666667	0
bin	-0.43333333333333	0
bin	-0.4	0
bin	-0.36666666666667	0
bin	-0.33333333333333	0
bin	-0.3	0
bin	-0.26666666666667	0
bin	-0.23333333333333	0
bin	-0.2	0
bin	-0.16666666666667	0
bin	-0.13333333333333	0
bin	-0.1	0
bin	-0.066666666666667	0
bin	-0.033333333333333	0
bin	0	1
bin	0.033333333333333	0
bin	0.066666666666667	0
bin	0.1	0
bin	0.13333333333333	0
bin	0.16666666666667	0
bin	0.2	0
bin	0.23333333333333	0
bin	0.26666666666667	0
bin	0.3	0
bin	0.33333333333333	0
bin	0.36666666666667	0
bin	0.4	0
bin	0.43333333333333	0
bin	0.46666666666667	0
bin	0.5	0
scalar SemiDecentralized.host[63].wlan[0].radio 	bitrate:min 	54000000
attr interpolationmode  sample-hold
attr title  "tx bitrate, min"
attr unit  bps
scalar SemiDecentralized.host[63].wlan[0].radio 	bitrate:max 	54000000
attr interpolationmode  sample-hold
attr title  "tx bitrate, max"
attr unit  bps
scalar SemiDecentralized.host[63].wlan[0].radio 	bitrate:timeavg 	54000000
attr interpolationmode  sample-hold
attr title  "tx bitrate, timeavg"
attr unit  bps
statistic SemiDecentralized.host[63].aodv 	NumSentAODVPackets
field count 58
field mean 29.5
field stddev 16.88687853532
field sum 1711
field sqrsum 66729
field min 1
field max 58
statistic SemiDecentralized.host[63].aodv 	NumReceivedAODVPackets
field count 0
field mean -nan
field stddev -nan
field sum 0
field sqrsum 0
field min -nan
field max -nan
scalar SemiDecentralized.host[63].aodv 	"Number of LinkBreaks" 	0
scalar SemiDecentralized.host[63].aodv 	RERRSentNow 	0
scalar SemiDecentralized.host[63].rsmgmnt 	"Number Received RouteResponses" 	0
scalar SemiDecentralized.host[63].rsmgmnt 	"Number Sent RREQs" 	0
scalar SemiDecentralized.host[64].wlan[0].mac 	"number of receiveunsigned d packets" 	0
scalar SemiDecentralized.host[64].wlan[0].mac 	"number of collisions" 	16
scalar SemiDecentralized.host[64].wlan[0].mac 	"number of internal collisions" 	0
scalar SemiDecentralized.host[64].wlan[0].mac 	"number of retry for AC 0" 	0
scalar SemiDecentralized.host[64].wlan[0].mac 	"sent and received bits" 	254448
scalar SemiDecentralized.host[64].wlan[0].mac 	"sent packet within AC 0" 	0
scalar SemiDecentralized.host[64].wlan[0].mac 	"sent in TXOP " 	0
scalar SemiDecentralized.host[64].wlan[0].mac 	"sentWithoutRetry AC 0" 	0
scalar SemiDecentralized.host[64].wlan[0].mac 	"numGivenUp AC 0" 	0
scalar SemiDecentralized.host[64].wlan[0].mac 	"numDropped AC 0" 	0
scalar SemiDecentralized.host[64].wlan[0].radio 	lossRate:min 	0
attr interpolationmode  backward-sample-hold
attr title  "packet loss rate, min"
scalar SemiDecentralized.host[64].wlan[0].radio 	lossRate:max 	0.06
attr interpolationmode  backward-sample-hold
attr title  "packet loss rate, max"
scalar SemiDecentralized.host[64].wlan[0].radio 	lossRate:timeavg 	0.0050794520246708
attr interpolationmode  backward-sample-hold
attr title  "packet loss rate, timeavg"
statistic SemiDecentralized.host[64].wlan[0].radio 	channelNo:histogram
field count 1
field mean 0
field stddev -nan
field sum 0
field sqrsum 0
field min 0
field max 0
attr interpolationmode  sample-hold
attr title  "channel no, histogram"
bin	-INF	0
bin	-0.5	0
bin	-0.46666666666667	0
bin	-0.43333333333333	0
bin	-0.4	0
bin	-0.36666666666667	0
bin	-0.33333333333333	0
bin	-0.3	0
bin	-0.26666666666667	0
bin	-0.23333333333333	0
bin	-0.2	0
bin	-0.16666666666667	0
bin	-0.13333333333333	0
bin	-0.1	0
bin	-0.066666666666667	0
bin	-0.033333333333333	0
bin	0	1
bin	0.033333333333333	0
bin	0.066666666666667	0
bin	0.1	0
bin	0.13333333333333	0
bin	0.16666666666667	0
bin	0.2	0
bin	0.23333333333333	0
bin	0.26666666666667	0
bin	0.3	0
bin	0.33333333333333	0
bin	0.36666666666667	0
bin	0.4	0
bin	0.43333333333333	0
bin	0.46666666666667	0
bin	0.5	0
scalar SemiDecentralized.host[64].wlan[0].radio 	bitrate:min 	54000000
attr interpolationmode  sample-hold
attr title  "tx bitrate, min"
attr unit  bps
scalar SemiDecentralized.host[64].wlan[0].radio 	bitrate:max 	54000000
attr interpolationmode  sample-hold
attr title  "tx bitrate, max"
attr unit  bps
scalar SemiDecentralized.host[64].wlan[0].radio 	bitrate:timeavg 	54000000
attr interpolationmode  sample-hold
attr title  "tx bitrate, timeavg"
attr unit  bps
statistic SemiDecentralized.host[64].aodv 	NumSentAODVPackets
field count 0
field mean -nan
field stddev -nan
field sum 0
field sqrsum 0
field min -nan
field max -nan
statistic SemiDecentralized.host[64].aodv 	NumReceivedAODVPackets
field count 0
field mean -nan
field stddev -nan
field sum 0
field sqrsum 0
field min -nan
field max -nan
scalar SemiDecentralized.host[64].aodv 	"Number of LinkBreaks" 	0
scalar SemiDecentralized.host[64].aodv 	RERRSentNow 	0
scalar SemiDecentralized.host[64].rsmgmnt 	"Number Received RouteResponses" 	0
scalar SemiDecentralized.host[64].rsmgmnt 	"Number Sent RREQs" 	0
