version 2
run General-54-20150713-18:45:53-60016
attr configname General
attr datetime 20150713-18:45:53
attr experiment General
attr inifile omnetpp.ini
attr iterationvars "$0=0.1, $1=1"
attr iterationvars2 "$0=0.1, $1=1, $repetition=0"
attr measurement "$0=0.1, $1=1"
attr network SemiDecentralized
attr processid 60016
attr repetition 0
attr replication #0
attr resultdir StaticThirtySourceDest
attr runnumber 54
attr seedset 54

scalar SemiDecentralized.host[0].wlan[0].mac 	"number of receiveunsigned d packets" 	49253
scalar SemiDecentralized.host[0].wlan[0].mac 	"number of collisions" 	108967
scalar SemiDecentralized.host[0].wlan[0].mac 	"number of internal collisions" 	0
scalar SemiDecentralized.host[0].wlan[0].mac 	"number of retry for AC 0" 	14521
scalar SemiDecentralized.host[0].wlan[0].mac 	"sent and received bits" 	180689392
scalar SemiDecentralized.host[0].wlan[0].mac 	"sent packet within AC 0" 	38780
scalar SemiDecentralized.host[0].wlan[0].mac 	"sent in TXOP " 	0
scalar SemiDecentralized.host[0].wlan[0].mac 	"sentWithoutRetry AC 0" 	32014
scalar SemiDecentralized.host[0].wlan[0].mac 	"numGivenUp AC 0" 	205
scalar SemiDecentralized.host[0].wlan[0].mac 	"numDropped AC 0" 	0
scalar SemiDecentralized.host[0].wlan[0].radio 	lossRate:min 	0
attr interpolationmode  backward-sample-hold
attr title  "packet loss rate, min"
scalar SemiDecentralized.host[0].wlan[0].radio 	lossRate:max 	0.64
attr interpolationmode  backward-sample-hold
attr title  "packet loss rate, max"
scalar SemiDecentralized.host[0].wlan[0].radio 	lossRate:timeavg 	0.19107545571299
attr interpolationmode  backward-sample-hold
attr title  "packet loss rate, timeavg"
statistic SemiDecentralized.host[0].wlan[0].radio 	channelNo:histogram
field count 1
field mean 0
field stddev -nan
field sum 0
field sqrsum 0
field min 0
field max 0
attr interpolationmode  sample-hold
attr title  "channel no, histogram"
bin	-INF	0
bin	-0.5	0
bin	-0.46666666666667	0
bin	-0.43333333333333	0
bin	-0.4	0
bin	-0.36666666666667	0
bin	-0.33333333333333	0
bin	-0.3	0
bin	-0.26666666666667	0
bin	-0.23333333333333	0
bin	-0.2	0
bin	-0.16666666666667	0
bin	-0.13333333333333	0
bin	-0.1	0
bin	-0.066666666666667	0
bin	-0.033333333333333	0
bin	0	1
bin	0.033333333333333	0
bin	0.066666666666667	0
bin	0.1	0
bin	0.13333333333333	0
bin	0.16666666666667	0
bin	0.2	0
bin	0.23333333333333	0
bin	0.26666666666667	0
bin	0.3	0
bin	0.33333333333333	0
bin	0.36666666666667	0
bin	0.4	0
bin	0.43333333333333	0
bin	0.46666666666667	0
bin	0.5	0
scalar SemiDecentralized.host[0].wlan[0].radio 	bitrate:min 	54000000
attr interpolationmode  sample-hold
attr title  "tx bitrate, min"
attr unit  bps
scalar SemiDecentralized.host[0].wlan[0].radio 	bitrate:max 	54000000
attr interpolationmode  sample-hold
attr title  "tx bitrate, max"
attr unit  bps
scalar SemiDecentralized.host[0].wlan[0].radio 	bitrate:timeavg 	54000000
attr interpolationmode  sample-hold
attr title  "tx bitrate, timeavg"
attr unit  bps
statistic SemiDecentralized.host[0].udpApp[0] 	endToEndDelay:histogram
field count 7959
field mean 0.0091696757424986
field stddev 0.029111314870729
field sum 72.981449234546
field sqrsum 7.4133717692732
field min 0.001968208653
field max 1.04569582047
attr interpolationmode  none
attr source  messageAge(rcvdPk)
attr title  "end-to-end delay, histogram"
attr unit  s
bin	-INF	0
bin	-0.0056686726605	0
bin	-0.0045096269279	0
bin	-0.0033505811953	0
bin	-0.0021915354627	0
bin	-0.0010324897301	0
bin	0.0001265560025	0
bin	0.0012856017351	12
bin	0.0024446474677	370
bin	0.0036036932003	1273
bin	0.0047627389329	1479
bin	0.0059217846655	1242
bin	0.0070808303981	950
bin	0.0082398761307	477
bin	0.0093989218633	422
bin	0.0105579675959	452
bin	0.0117170133285	316
bin	0.0128760590611	248
bin	0.0140351047937	181
bin	0.0151941505263	153
bin	0.0163531962589	95
bin	0.0175122419915	70
bin	0.0186712877241	53
bin	0.0198303334567	44
bin	0.0209893791893	27
bin	0.0221484249219	11
bin	0.0233074706545	12
bin	0.0244665163871	2
bin	0.0256255621197	8
bin	0.0267846078523	2
bin	0.0279436535849	7
bin	0.0291026993175	53
scalar SemiDecentralized.host[0].udp 	droppedPkBadChecksum:count 	0
attr interpolationmode  none
attr title  "packets dropped (checksum error), count"
scalar SemiDecentralized.host[0].udp 	droppedPkWrongPort:count 	0
attr interpolationmode  none
attr title  "packets dropped (wrong port), count"
scalar SemiDecentralized.host[0].udp 	passedUpPk:count 	7959
attr interpolationmode  none
attr title  "packets passed up, count"
scalar SemiDecentralized.host[0].udp 	rcvdPk:count 	7959
attr interpolationmode  none
attr source  rcvdPk
attr title  "packets received, count"
scalar SemiDecentralized.host[0].udp 	rcvdPk:sum(packetBytes) 	4138680
attr interpolationmode  none
attr source  rcvdPk
attr title  "packets received, sum(packetBytes)"
scalar SemiDecentralized.host[0].udp 	sentPk:count 	0
attr interpolationmode  none
attr source  sentPk
attr title  "packets sent, count"
scalar SemiDecentralized.host[0].udp 	sentPk:sum(packetBytes) 	0
attr interpolationmode  none
attr source  sentPk
attr title  "packets sent, sum(packetBytes)"
statistic SemiDecentralized.host[0].aodv 	NumSentAODVPackets
field count 2048
field mean 1024.5
field stddev 591.35099560244
field sum 2098176
field sqrsum 2865409024
field min 1
field max 2048
statistic SemiDecentralized.host[0].aodv 	NumReceivedAODVPackets
field count 206
field mean 103.5
field stddev 59.611240550755
field sum 21321
field sqrsum 2935191
field min 1
field max 206
scalar SemiDecentralized.host[0].aodv 	"Number of LinkBreaks" 	205
scalar SemiDecentralized.host[0].aodv 	RERRSentNow 	206
scalar SemiDecentralized.host[0].rsmgmnt 	"Number Received RouteResponses" 	775
scalar SemiDecentralized.host[0].rsmgmnt 	"Number Sent RREQs" 	775
scalar SemiDecentralized.host[1].wlan[0].mac 	"number of receiveunsigned d packets" 	1215
scalar SemiDecentralized.host[1].wlan[0].mac 	"number of collisions" 	111259
scalar SemiDecentralized.host[1].wlan[0].mac 	"number of internal collisions" 	0
scalar SemiDecentralized.host[1].wlan[0].mac 	"number of retry for AC 0" 	10061
scalar SemiDecentralized.host[1].wlan[0].mac 	"sent and received bits" 	46979712
scalar SemiDecentralized.host[1].wlan[0].mac 	"sent packet within AC 0" 	10036
scalar SemiDecentralized.host[1].wlan[0].mac 	"sent in TXOP " 	0
scalar SemiDecentralized.host[1].wlan[0].mac 	"sentWithoutRetry AC 0" 	5356
scalar SemiDecentralized.host[1].wlan[0].mac 	"numGivenUp AC 0" 	29
scalar SemiDecentralized.host[1].wlan[0].mac 	"numDropped AC 0" 	0
scalar SemiDecentralized.host[1].wlan[0].radio 	lossRate:min 	0
attr interpolationmode  backward-sample-hold
attr title  "packet loss rate, min"
scalar SemiDecentralized.host[1].wlan[0].radio 	lossRate:max 	0.72
attr interpolationmode  backward-sample-hold
attr title  "packet loss rate, max"
scalar SemiDecentralized.host[1].wlan[0].radio 	lossRate:timeavg 	0.22465716679571
attr interpolationmode  backward-sample-hold
attr title  "packet loss rate, timeavg"
statistic SemiDecentralized.host[1].wlan[0].radio 	channelNo:histogram
field count 1
field mean 0
field stddev -nan
field sum 0
field sqrsum 0
field min 0
field max 0
attr interpolationmode  sample-hold
attr title  "channel no, histogram"
bin	-INF	0
bin	-0.5	0
bin	-0.46666666666667	0
bin	-0.43333333333333	0
bin	-0.4	0
bin	-0.36666666666667	0
bin	-0.33333333333333	0
bin	-0.3	0
bin	-0.26666666666667	0
bin	-0.23333333333333	0
bin	-0.2	0
bin	-0.16666666666667	0
bin	-0.13333333333333	0
bin	-0.1	0
bin	-0.066666666666667	0
bin	-0.033333333333333	0
bin	0	1
bin	0.033333333333333	0
bin	0.066666666666667	0
bin	0.1	0
bin	0.13333333333333	0
bin	0.16666666666667	0
bin	0.2	0
bin	0.23333333333333	0
bin	0.26666666666667	0
bin	0.3	0
bin	0.33333333333333	0
bin	0.36666666666667	0
bin	0.4	0
bin	0.43333333333333	0
bin	0.46666666666667	0
bin	0.5	0
scalar SemiDecentralized.host[1].wlan[0].radio 	bitrate:min 	54000000
attr interpolationmode  sample-hold
attr title  "tx bitrate, min"
attr unit  bps
scalar SemiDecentralized.host[1].wlan[0].radio 	bitrate:max 	54000000
attr interpolationmode  sample-hold
attr title  "tx bitrate, max"
attr unit  bps
scalar SemiDecentralized.host[1].wlan[0].radio 	bitrate:timeavg 	54000000
attr interpolationmode  sample-hold
attr title  "tx bitrate, timeavg"
attr unit  bps
scalar SemiDecentralized.host[1].udpApp[0] 	"packets sent" 	8873
scalar SemiDecentralized.host[1].udpApp[0] 	"packets received" 	0
statistic SemiDecentralized.host[1].udpApp[0] 	rcvdPkLifetime:stats
field count 0
field mean -nan
field stddev -nan
field sum 0
field sqrsum 0
field min -nan
field max -nan
attr interpolationmode  none
attr source  messageAge(rcvdPk)
attr title  "received packet lifetime, stats"
attr unit  s
scalar SemiDecentralized.host[1].udp 	droppedPkBadChecksum:count 	0
attr interpolationmode  none
attr title  "packets dropped (checksum error), count"
scalar SemiDecentralized.host[1].udp 	droppedPkWrongPort:count 	0
attr interpolationmode  none
attr title  "packets dropped (wrong port), count"
scalar SemiDecentralized.host[1].udp 	passedUpPk:count 	0
attr interpolationmode  none
attr title  "packets passed up, count"
scalar SemiDecentralized.host[1].udp 	rcvdPk:count 	0
attr interpolationmode  none
attr source  rcvdPk
attr title  "packets received, count"
scalar SemiDecentralized.host[1].udp 	rcvdPk:sum(packetBytes) 	0
attr interpolationmode  none
attr source  rcvdPk
attr title  "packets received, sum(packetBytes)"
scalar SemiDecentralized.host[1].udp 	sentPk:count 	8873
attr interpolationmode  none
attr source  sentPk
attr title  "packets sent, count"
scalar SemiDecentralized.host[1].udp 	sentPk:sum(packetBytes) 	4613960
attr interpolationmode  none
attr source  sentPk
attr title  "packets sent, sum(packetBytes)"
statistic SemiDecentralized.host[1].aodv 	NumSentAODVPackets
field count 124
field mean 62.5
field stddev 35.939764421413
field sum 7750
field sqrsum 643250
field min 1
field max 124
statistic SemiDecentralized.host[1].aodv 	NumReceivedAODVPackets
field count 30
field mean 15.5
field stddev 8.8034084308295
field sum 465
field sqrsum 9455
field min 1
field max 30
scalar SemiDecentralized.host[1].aodv 	"Number of LinkBreaks" 	29
scalar SemiDecentralized.host[1].aodv 	RERRSentNow 	29
scalar SemiDecentralized.host[1].rsmgmnt 	"Number Received RouteResponses" 	99
scalar SemiDecentralized.host[1].rsmgmnt 	"Number Sent RREQs" 	99
scalar SemiDecentralized.host[2].wlan[0].mac 	"number of receiveunsigned d packets" 	17688
scalar SemiDecentralized.host[2].wlan[0].mac 	"number of collisions" 	75885
scalar SemiDecentralized.host[2].wlan[0].mac 	"number of internal collisions" 	0
scalar SemiDecentralized.host[2].wlan[0].mac 	"number of retry for AC 0" 	2342
scalar SemiDecentralized.host[2].wlan[0].mac 	"sent and received bits" 	40243120
scalar SemiDecentralized.host[2].wlan[0].mac 	"sent packet within AC 0" 	8597
scalar SemiDecentralized.host[2].wlan[0].mac 	"sent in TXOP " 	0
scalar SemiDecentralized.host[2].wlan[0].mac 	"sentWithoutRetry AC 0" 	7469
scalar SemiDecentralized.host[2].wlan[0].mac 	"numGivenUp AC 0" 	43
scalar SemiDecentralized.host[2].wlan[0].mac 	"numDropped AC 0" 	0
scalar SemiDecentralized.host[2].wlan[0].radio 	lossRate:min 	0
attr interpolationmode  backward-sample-hold
attr title  "packet loss rate, min"
scalar SemiDecentralized.host[2].wlan[0].radio 	lossRate:max 	0.72
attr interpolationmode  backward-sample-hold
attr title  "packet loss rate, max"
scalar SemiDecentralized.host[2].wlan[0].radio 	lossRate:timeavg 	0.2066488747649
attr interpolationmode  backward-sample-hold
attr title  "packet loss rate, timeavg"
statistic SemiDecentralized.host[2].wlan[0].radio 	channelNo:histogram
field count 1
field mean 0
field stddev -nan
field sum 0
field sqrsum 0
field min 0
field max 0
attr interpolationmode  sample-hold
attr title  "channel no, histogram"
bin	-INF	0
bin	-0.5	0
bin	-0.46666666666667	0
bin	-0.43333333333333	0
bin	-0.4	0
bin	-0.36666666666667	0
bin	-0.33333333333333	0
bin	-0.3	0
bin	-0.26666666666667	0
bin	-0.23333333333333	0
bin	-0.2	0
bin	-0.16666666666667	0
bin	-0.13333333333333	0
bin	-0.1	0
bin	-0.066666666666667	0
bin	-0.033333333333333	0
bin	0	1
bin	0.033333333333333	0
bin	0.066666666666667	0
bin	0.1	0
bin	0.13333333333333	0
bin	0.16666666666667	0
bin	0.2	0
bin	0.23333333333333	0
bin	0.26666666666667	0
bin	0.3	0
bin	0.33333333333333	0
bin	0.36666666666667	0
bin	0.4	0
bin	0.43333333333333	0
bin	0.46666666666667	0
bin	0.5	0
scalar SemiDecentralized.host[2].wlan[0].radio 	bitrate:min 	54000000
attr interpolationmode  sample-hold
attr title  "tx bitrate, min"
attr unit  bps
scalar SemiDecentralized.host[2].wlan[0].radio 	bitrate:max 	54000000
attr interpolationmode  sample-hold
attr title  "tx bitrate, max"
attr unit  bps
scalar SemiDecentralized.host[2].wlan[0].radio 	bitrate:timeavg 	54000000
attr interpolationmode  sample-hold
attr title  "tx bitrate, timeavg"
attr unit  bps
statistic SemiDecentralized.host[2].udpApp[0] 	endToEndDelay:histogram
field count 8371
field mean 0.0023245981568473
field stddev 0.0032264043942547
field sum 19.459211170969
field sqrsum 0.13236391251052
field min 0.000579060471
field max 0.089153908809
attr interpolationmode  none
attr source  messageAge(rcvdPk)
attr title  "end-to-end delay, histogram"
attr unit  s
bin	-INF	0
bin	-0.0034438749465	0
bin	-0.0029048068489667	0
bin	-0.0023657387514333	0
bin	-0.0018266706539	0
bin	-0.0012876025563667	0
bin	-0.00074853445883333	0
bin	-0.0002094663613	0
bin	0.00032960173623333	1388
bin	0.00086866983376667	2270
bin	0.0014077379313	1794
bin	0.0019468060288333	1021
bin	0.0024858741263667	685
bin	0.0030249422239	183
bin	0.0035640103214333	63
bin	0.0041030784189667	104
bin	0.0046421465165	151
bin	0.0051812146140333	131
bin	0.0057202827115667	144
bin	0.0062593508091	117
bin	0.0067984189066333	60
bin	0.0073374870041667	26
bin	0.0078765551017	8
bin	0.0084156231992333	16
bin	0.0089546912967667	11
bin	0.0094937593943	13
bin	0.010032827491833	7
bin	0.010571895589367	4
bin	0.0111109636869	12
bin	0.011650031784433	8
bin	0.012189099881967	9
bin	0.0127281679795	146
scalar SemiDecentralized.host[2].udp 	droppedPkBadChecksum:count 	0
attr interpolationmode  none
attr title  "packets dropped (checksum error), count"
scalar SemiDecentralized.host[2].udp 	droppedPkWrongPort:count 	0
attr interpolationmode  none
attr title  "packets dropped (wrong port), count"
scalar SemiDecentralized.host[2].udp 	passedUpPk:count 	8371
attr interpolationmode  none
attr title  "packets passed up, count"
scalar SemiDecentralized.host[2].udp 	rcvdPk:count 	8371
attr interpolationmode  none
attr source  rcvdPk
attr title  "packets received, count"
scalar SemiDecentralized.host[2].udp 	rcvdPk:sum(packetBytes) 	4352920
attr interpolationmode  none
attr source  rcvdPk
attr title  "packets received, sum(packetBytes)"
scalar SemiDecentralized.host[2].udp 	sentPk:count 	0
attr interpolationmode  none
attr source  sentPk
attr title  "packets sent, count"
scalar SemiDecentralized.host[2].udp 	sentPk:sum(packetBytes) 	0
attr interpolationmode  none
attr source  sentPk
attr title  "packets sent, sum(packetBytes)"
statistic SemiDecentralized.host[2].aodv 	NumSentAODVPackets
field count 627
field mean 314
field stddev 181.14358945323
field sum 196878
field sqrsum 82360630
field min 1
field max 627
statistic SemiDecentralized.host[2].aodv 	NumReceivedAODVPackets
field count 44
field mean 22.5
field stddev 12.845232578665
field sum 990
field sqrsum 29370
field min 1
field max 44
scalar SemiDecentralized.host[2].aodv 	"Number of LinkBreaks" 	43
scalar SemiDecentralized.host[2].aodv 	RERRSentNow 	44
scalar SemiDecentralized.host[2].rsmgmnt 	"Number Received RouteResponses" 	88
scalar SemiDecentralized.host[2].rsmgmnt 	"Number Sent RREQs" 	88
scalar SemiDecentralized.host[3].wlan[0].mac 	"number of receiveunsigned d packets" 	18463
scalar SemiDecentralized.host[3].wlan[0].mac 	"number of collisions" 	202164
scalar SemiDecentralized.host[3].wlan[0].mac 	"number of internal collisions" 	0
scalar SemiDecentralized.host[3].wlan[0].mac 	"number of retry for AC 0" 	9337
scalar SemiDecentralized.host[3].wlan[0].mac 	"sent and received bits" 	125159440
scalar SemiDecentralized.host[3].wlan[0].mac 	"sent packet within AC 0" 	26829
scalar SemiDecentralized.host[3].wlan[0].mac 	"sent in TXOP " 	0
scalar SemiDecentralized.host[3].wlan[0].mac 	"sentWithoutRetry AC 0" 	21691
scalar SemiDecentralized.host[3].wlan[0].mac 	"numGivenUp AC 0" 	60
scalar SemiDecentralized.host[3].wlan[0].mac 	"numDropped AC 0" 	0
scalar SemiDecentralized.host[3].wlan[0].radio 	lossRate:min 	0
attr interpolationmode  backward-sample-hold
attr title  "packet loss rate, min"
scalar SemiDecentralized.host[3].wlan[0].radio 	lossRate:max 	0.66
attr interpolationmode  backward-sample-hold
attr title  "packet loss rate, max"
scalar SemiDecentralized.host[3].wlan[0].radio 	lossRate:timeavg 	0.22398061386695
attr interpolationmode  backward-sample-hold
attr title  "packet loss rate, timeavg"
statistic SemiDecentralized.host[3].wlan[0].radio 	channelNo:histogram
field count 1
field mean 0
field stddev -nan
field sum 0
field sqrsum 0
field min 0
field max 0
attr interpolationmode  sample-hold
attr title  "channel no, histogram"
bin	-INF	0
bin	-0.5	0
bin	-0.46666666666667	0
bin	-0.43333333333333	0
bin	-0.4	0
bin	-0.36666666666667	0
bin	-0.33333333333333	0
bin	-0.3	0
bin	-0.26666666666667	0
bin	-0.23333333333333	0
bin	-0.2	0
bin	-0.16666666666667	0
bin	-0.13333333333333	0
bin	-0.1	0
bin	-0.066666666666667	0
bin	-0.033333333333333	0
bin	0	1
bin	0.033333333333333	0
bin	0.066666666666667	0
bin	0.1	0
bin	0.13333333333333	0
bin	0.16666666666667	0
bin	0.2	0
bin	0.23333333333333	0
bin	0.26666666666667	0
bin	0.3	0
bin	0.33333333333333	0
bin	0.36666666666667	0
bin	0.4	0
bin	0.43333333333333	0
bin	0.46666666666667	0
bin	0.5	0
scalar SemiDecentralized.host[3].wlan[0].radio 	bitrate:min 	54000000
attr interpolationmode  sample-hold
attr title  "tx bitrate, min"
attr unit  bps
scalar SemiDecentralized.host[3].wlan[0].radio 	bitrate:max 	54000000
attr interpolationmode  sample-hold
attr title  "tx bitrate, max"
attr unit  bps
scalar SemiDecentralized.host[3].wlan[0].radio 	bitrate:timeavg 	54000000
attr interpolationmode  sample-hold
attr title  "tx bitrate, timeavg"
attr unit  bps
scalar SemiDecentralized.host[3].udpApp[0] 	"packets sent" 	8890
scalar SemiDecentralized.host[3].udpApp[0] 	"packets received" 	0
statistic SemiDecentralized.host[3].udpApp[0] 	rcvdPkLifetime:stats
field count 0
field mean -nan
field stddev -nan
field sum 0
field sqrsum 0
field min -nan
field max -nan
attr interpolationmode  none
attr source  messageAge(rcvdPk)
attr title  "received packet lifetime, stats"
attr unit  s
scalar SemiDecentralized.host[3].udp 	droppedPkBadChecksum:count 	0
attr interpolationmode  none
attr title  "packets dropped (checksum error), count"
scalar SemiDecentralized.host[3].udp 	droppedPkWrongPort:count 	0
attr interpolationmode  none
attr title  "packets dropped (wrong port), count"
scalar SemiDecentralized.host[3].udp 	passedUpPk:count 	0
attr interpolationmode  none
attr title  "packets passed up, count"
scalar SemiDecentralized.host[3].udp 	rcvdPk:count 	0
attr interpolationmode  none
attr source  rcvdPk
attr title  "packets received, count"
scalar SemiDecentralized.host[3].udp 	rcvdPk:sum(packetBytes) 	0
attr interpolationmode  none
attr source  rcvdPk
attr title  "packets received, sum(packetBytes)"
scalar SemiDecentralized.host[3].udp 	sentPk:count 	8890
attr interpolationmode  none
attr source  sentPk
attr title  "packets sent, count"
scalar SemiDecentralized.host[3].udp 	sentPk:sum(packetBytes) 	4622800
attr interpolationmode  none
attr source  sentPk
attr title  "packets sent, sum(packetBytes)"
statistic SemiDecentralized.host[3].aodv 	NumSentAODVPackets
field count 642
field mean 321.5
field stddev 185.47371781468
field sum 206403
field sqrsum 88409285
field min 1
field max 642
statistic SemiDecentralized.host[3].aodv 	NumReceivedAODVPackets
field count 67
field mean 34
field stddev 19.485036994234
field sum 2278
field sqrsum 102510
field min 1
field max 67
scalar SemiDecentralized.host[3].aodv 	"Number of LinkBreaks" 	60
scalar SemiDecentralized.host[3].aodv 	RERRSentNow 	66
scalar SemiDecentralized.host[3].rsmgmnt 	"Number Received RouteResponses" 	195
scalar SemiDecentralized.host[3].rsmgmnt 	"Number Sent RREQs" 	195
scalar SemiDecentralized.host[4].wlan[0].mac 	"number of receiveunsigned d packets" 	9183
scalar SemiDecentralized.host[4].wlan[0].mac 	"number of collisions" 	126767
scalar SemiDecentralized.host[4].wlan[0].mac 	"number of internal collisions" 	0
scalar SemiDecentralized.host[4].wlan[0].mac 	"number of retry for AC 0" 	276
scalar SemiDecentralized.host[4].wlan[0].mac 	"sent and received bits" 	3506208
scalar SemiDecentralized.host[4].wlan[0].mac 	"sent packet within AC 0" 	705
scalar SemiDecentralized.host[4].wlan[0].mac 	"sent in TXOP " 	0
scalar SemiDecentralized.host[4].wlan[0].mac 	"sentWithoutRetry AC 0" 	610
scalar SemiDecentralized.host[4].wlan[0].mac 	"numGivenUp AC 0" 	4
scalar SemiDecentralized.host[4].wlan[0].mac 	"numDropped AC 0" 	0
scalar SemiDecentralized.host[4].wlan[0].radio 	lossRate:min 	0
attr interpolationmode  backward-sample-hold
attr title  "packet loss rate, min"
scalar SemiDecentralized.host[4].wlan[0].radio 	lossRate:max 	0.68
attr interpolationmode  backward-sample-hold
attr title  "packet loss rate, max"
scalar SemiDecentralized.host[4].wlan[0].radio 	lossRate:timeavg 	0.27916303009988
attr interpolationmode  backward-sample-hold
attr title  "packet loss rate, timeavg"
statistic SemiDecentralized.host[4].wlan[0].radio 	channelNo:histogram
field count 1
field mean 0
field stddev -nan
field sum 0
field sqrsum 0
field min 0
field max 0
attr interpolationmode  sample-hold
attr title  "channel no, histogram"
bin	-INF	0
bin	-0.5	0
bin	-0.46666666666667	0
bin	-0.43333333333333	0
bin	-0.4	0
bin	-0.36666666666667	0
bin	-0.33333333333333	0
bin	-0.3	0
bin	-0.26666666666667	0
bin	-0.23333333333333	0
bin	-0.2	0
bin	-0.16666666666667	0
bin	-0.13333333333333	0
bin	-0.1	0
bin	-0.066666666666667	0
bin	-0.033333333333333	0
bin	0	1
bin	0.033333333333333	0
bin	0.066666666666667	0
bin	0.1	0
bin	0.13333333333333	0
bin	0.16666666666667	0
bin	0.2	0
bin	0.23333333333333	0
bin	0.26666666666667	0
bin	0.3	0
bin	0.33333333333333	0
bin	0.36666666666667	0
bin	0.4	0
bin	0.43333333333333	0
bin	0.46666666666667	0
bin	0.5	0
scalar SemiDecentralized.host[4].wlan[0].radio 	bitrate:min 	54000000
attr interpolationmode  sample-hold
attr title  "tx bitrate, min"
attr unit  bps
scalar SemiDecentralized.host[4].wlan[0].radio 	bitrate:max 	54000000
attr interpolationmode  sample-hold
attr title  "tx bitrate, max"
attr unit  bps
scalar SemiDecentralized.host[4].wlan[0].radio 	bitrate:timeavg 	54000000
attr interpolationmode  sample-hold
attr title  "tx bitrate, timeavg"
attr unit  bps
statistic SemiDecentralized.host[4].udpApp[0] 	endToEndDelay:histogram
field count 8470
field mean 0.0034063369489548
field stddev 0.0050425995126684
field sum 28.851673957647
field sqrsum 0.31362664461982
field min 0.000115009958
field max 0.038527708631
attr interpolationmode  none
attr source  messageAge(rcvdPk)
attr title  "end-to-end delay, histogram"
attr unit  s
bin	-INF	0
bin	-0.007263018468	0
bin	-0.0062756222704	0
bin	-0.0052882260728	0
bin	-0.0043008298752	0
bin	-0.0033134336776	0
bin	-0.00232603748	0
bin	-0.0013386412824	0
bin	-0.0003512450848	1264
bin	0.0006361511128	2558
bin	0.0016235473104	2134
bin	0.002610943508	792
bin	0.0035983397056	426
bin	0.0045857359032	172
bin	0.0055731321008	36
bin	0.0065605282984	44
bin	0.007547924496	72
bin	0.0085353206936	77
bin	0.0095227168912	55
bin	0.0105101130888	59
bin	0.0114975092864	95
bin	0.012484905484	73
bin	0.0134723016816	85
bin	0.0144596978792	89
bin	0.0154470940768	60
bin	0.0164344902744	46
bin	0.017421886472	84
bin	0.0184092826696	71
bin	0.0193966788672	23
bin	0.0203840750648	25
bin	0.0213714712624	21
bin	0.02235886746	109
scalar SemiDecentralized.host[4].udp 	droppedPkBadChecksum:count 	0
attr interpolationmode  none
attr title  "packets dropped (checksum error), count"
scalar SemiDecentralized.host[4].udp 	droppedPkWrongPort:count 	0
attr interpolationmode  none
attr title  "packets dropped (wrong port), count"
scalar SemiDecentralized.host[4].udp 	passedUpPk:count 	8470
attr interpolationmode  none
attr title  "packets passed up, count"
scalar SemiDecentralized.host[4].udp 	rcvdPk:count 	8470
attr interpolationmode  none
attr source  rcvdPk
attr title  "packets received, count"
scalar SemiDecentralized.host[4].udp 	rcvdPk:sum(packetBytes) 	4404400
attr interpolationmode  none
attr source  rcvdPk
attr title  "packets received, sum(packetBytes)"
scalar SemiDecentralized.host[4].udp 	sentPk:count 	0
attr interpolationmode  none
attr source  sentPk
attr title  "packets sent, count"
scalar SemiDecentralized.host[4].udp 	sentPk:sum(packetBytes) 	0
attr interpolationmode  none
attr source  sentPk
attr title  "packets sent, sum(packetBytes)"
statistic SemiDecentralized.host[4].aodv 	NumSentAODVPackets
field count 27
field mean 14
field stddev 7.9372539331938
field sum 378
field sqrsum 6930
field min 1
field max 27
statistic SemiDecentralized.host[4].aodv 	NumReceivedAODVPackets
field count 4
field mean 2.5
field stddev 1.2909944487358
field sum 10
field sqrsum 30
field min 1
field max 4
scalar SemiDecentralized.host[4].aodv 	"Number of LinkBreaks" 	4
scalar SemiDecentralized.host[4].aodv 	RERRSentNow 	4
scalar SemiDecentralized.host[4].rsmgmnt 	"Number Received RouteResponses" 	15
scalar SemiDecentralized.host[4].rsmgmnt 	"Number Sent RREQs" 	15
scalar SemiDecentralized.host[5].wlan[0].mac 	"number of receiveunsigned d packets" 	7
scalar SemiDecentralized.host[5].wlan[0].mac 	"number of collisions" 	90507
scalar SemiDecentralized.host[5].wlan[0].mac 	"number of internal collisions" 	0
scalar SemiDecentralized.host[5].wlan[0].mac 	"number of retry for AC 0" 	19501
scalar SemiDecentralized.host[5].wlan[0].mac 	"sent and received bits" 	39774336
scalar SemiDecentralized.host[5].wlan[0].mac 	"sent packet within AC 0" 	8487
scalar SemiDecentralized.host[5].wlan[0].mac 	"sent in TXOP " 	0
scalar SemiDecentralized.host[5].wlan[0].mac 	"sentWithoutRetry AC 0" 	1137
scalar SemiDecentralized.host[5].wlan[0].mac 	"numGivenUp AC 0" 	384
scalar SemiDecentralized.host[5].wlan[0].mac 	"numDropped AC 0" 	0
scalar SemiDecentralized.host[5].wlan[0].radio 	lossRate:min 	0
attr interpolationmode  backward-sample-hold
attr title  "packet loss rate, min"
scalar SemiDecentralized.host[5].wlan[0].radio 	lossRate:max 	0.76
attr interpolationmode  backward-sample-hold
attr title  "packet loss rate, max"
scalar SemiDecentralized.host[5].wlan[0].radio 	lossRate:timeavg 	0.36763718392769
attr interpolationmode  backward-sample-hold
attr title  "packet loss rate, timeavg"
statistic SemiDecentralized.host[5].wlan[0].radio 	channelNo:histogram
field count 1
field mean 0
field stddev -nan
field sum 0
field sqrsum 0
field min 0
field max 0
attr interpolationmode  sample-hold
attr title  "channel no, histogram"
bin	-INF	0
bin	-0.5	0
bin	-0.46666666666667	0
bin	-0.43333333333333	0
bin	-0.4	0
bin	-0.36666666666667	0
bin	-0.33333333333333	0
bin	-0.3	0
bin	-0.26666666666667	0
bin	-0.23333333333333	0
bin	-0.2	0
bin	-0.16666666666667	0
bin	-0.13333333333333	0
bin	-0.1	0
bin	-0.066666666666667	0
bin	-0.033333333333333	0
bin	0	1
bin	0.033333333333333	0
bin	0.066666666666667	0
bin	0.1	0
bin	0.13333333333333	0
bin	0.16666666666667	0
bin	0.2	0
bin	0.23333333333333	0
bin	0.26666666666667	0
bin	0.3	0
bin	0.33333333333333	0
bin	0.36666666666667	0
bin	0.4	0
bin	0.43333333333333	0
bin	0.46666666666667	0
bin	0.5	0
scalar SemiDecentralized.host[5].wlan[0].radio 	bitrate:min 	54000000
attr interpolationmode  sample-hold
attr title  "tx bitrate, min"
attr unit  bps
scalar SemiDecentralized.host[5].wlan[0].radio 	bitrate:max 	54000000
attr interpolationmode  sample-hold
attr title  "tx bitrate, max"
attr unit  bps
scalar SemiDecentralized.host[5].wlan[0].radio 	bitrate:timeavg 	54000000
attr interpolationmode  sample-hold
attr title  "tx bitrate, timeavg"
attr unit  bps
scalar SemiDecentralized.host[5].udpApp[0] 	"packets sent" 	8871
scalar SemiDecentralized.host[5].udpApp[0] 	"packets received" 	0
statistic SemiDecentralized.host[5].udpApp[0] 	rcvdPkLifetime:stats
field count 0
field mean -nan
field stddev -nan
field sum 0
field sqrsum 0
field min -nan
field max -nan
attr interpolationmode  none
attr source  messageAge(rcvdPk)
attr title  "received packet lifetime, stats"
attr unit  s
scalar SemiDecentralized.host[5].udp 	droppedPkBadChecksum:count 	0
attr interpolationmode  none
attr title  "packets dropped (checksum error), count"
scalar SemiDecentralized.host[5].udp 	droppedPkWrongPort:count 	0
attr interpolationmode  none
attr title  "packets dropped (wrong port), count"
scalar SemiDecentralized.host[5].udp 	passedUpPk:count 	0
attr interpolationmode  none
attr title  "packets passed up, count"
scalar SemiDecentralized.host[5].udp 	rcvdPk:count 	0
attr interpolationmode  none
attr source  rcvdPk
attr title  "packets received, count"
scalar SemiDecentralized.host[5].udp 	rcvdPk:sum(packetBytes) 	0
attr interpolationmode  none
attr source  rcvdPk
attr title  "packets received, sum(packetBytes)"
scalar SemiDecentralized.host[5].udp 	sentPk:count 	8871
attr interpolationmode  none
attr source  sentPk
attr title  "packets sent, count"
scalar SemiDecentralized.host[5].udp 	sentPk:sum(packetBytes) 	4612920
attr interpolationmode  none
attr source  sentPk
attr title  "packets sent, sum(packetBytes)"
statistic SemiDecentralized.host[5].aodv 	NumSentAODVPackets
field count 780
field mean 390.5
field stddev 225.31089631884
field sum 304590
field sqrsum 158488330
field min 1
field max 780
statistic SemiDecentralized.host[5].aodv 	NumReceivedAODVPackets
field count 385
field mean 193
field stddev 111.28417078213
field sum 74305
field sqrsum 19096385
field min 1
field max 385
scalar SemiDecentralized.host[5].aodv 	"Number of LinkBreaks" 	384
scalar SemiDecentralized.host[5].aodv 	RERRSentNow 	384
scalar SemiDecentralized.host[5].rsmgmnt 	"Number Received RouteResponses" 	780
scalar SemiDecentralized.host[5].rsmgmnt 	"Number Sent RREQs" 	780
scalar SemiDecentralized.host[6].wlan[0].mac 	"number of receiveunsigned d packets" 	30024
scalar SemiDecentralized.host[6].wlan[0].mac 	"number of collisions" 	154422
scalar SemiDecentralized.host[6].wlan[0].mac 	"number of internal collisions" 	0
scalar SemiDecentralized.host[6].wlan[0].mac 	"number of retry for AC 0" 	5223
scalar SemiDecentralized.host[6].wlan[0].mac 	"sent and received bits" 	96243936
scalar SemiDecentralized.host[6].wlan[0].mac 	"sent packet within AC 0" 	20630
scalar SemiDecentralized.host[6].wlan[0].mac 	"sent in TXOP " 	0
scalar SemiDecentralized.host[6].wlan[0].mac 	"sentWithoutRetry AC 0" 	17597
scalar SemiDecentralized.host[6].wlan[0].mac 	"numGivenUp AC 0" 	23
scalar SemiDecentralized.host[6].wlan[0].mac 	"numDropped AC 0" 	0
scalar SemiDecentralized.host[6].wlan[0].radio 	lossRate:min 	0
attr interpolationmode  backward-sample-hold
attr title  "packet loss rate, min"
scalar SemiDecentralized.host[6].wlan[0].radio 	lossRate:max 	0.64
attr interpolationmode  backward-sample-hold
attr title  "packet loss rate, max"
scalar SemiDecentralized.host[6].wlan[0].radio 	lossRate:timeavg 	0.16373545122932
attr interpolationmode  backward-sample-hold
attr title  "packet loss rate, timeavg"
statistic SemiDecentralized.host[6].wlan[0].radio 	channelNo:histogram
field count 1
field mean 0
field stddev -nan
field sum 0
field sqrsum 0
field min 0
field max 0
attr interpolationmode  sample-hold
attr title  "channel no, histogram"
bin	-INF	0
bin	-0.5	0
bin	-0.46666666666667	0
bin	-0.43333333333333	0
bin	-0.4	0
bin	-0.36666666666667	0
bin	-0.33333333333333	0
bin	-0.3	0
bin	-0.26666666666667	0
bin	-0.23333333333333	0
bin	-0.2	0
bin	-0.16666666666667	0
bin	-0.13333333333333	0
bin	-0.1	0
bin	-0.066666666666667	0
bin	-0.033333333333333	0
bin	0	1
bin	0.033333333333333	0
bin	0.066666666666667	0
bin	0.1	0
bin	0.13333333333333	0
bin	0.16666666666667	0
bin	0.2	0
bin	0.23333333333333	0
bin	0.26666666666667	0
bin	0.3	0
bin	0.33333333333333	0
bin	0.36666666666667	0
bin	0.4	0
bin	0.43333333333333	0
bin	0.46666666666667	0
bin	0.5	0
scalar SemiDecentralized.host[6].wlan[0].radio 	bitrate:min 	54000000
attr interpolationmode  sample-hold
attr title  "tx bitrate, min"
attr unit  bps
scalar SemiDecentralized.host[6].wlan[0].radio 	bitrate:max 	54000000
attr interpolationmode  sample-hold
attr title  "tx bitrate, max"
attr unit  bps
scalar SemiDecentralized.host[6].wlan[0].radio 	bitrate:timeavg 	54000000
attr interpolationmode  sample-hold
attr title  "tx bitrate, timeavg"
attr unit  bps
statistic SemiDecentralized.host[6].udpApp[0] 	endToEndDelay:histogram
field count 8824
field mean 0.0015506529935501
field stddev 0.0020627053156686
field sum 13.682962015086
field sqrsum 0.058757213663098
field min 0.00012436923
field max 0.042051868228
attr interpolationmode  none
attr source  messageAge(rcvdPk)
attr title  "end-to-end delay, histogram"
attr unit  s
bin	-INF	0
bin	-0.0036206762425	0
bin	-0.0030580990460333	0
bin	-0.0024955218495667	0
bin	-0.0019329446531	0
bin	-0.0013703674566333	0
bin	-0.00080779026016667	0
bin	-0.0002452130637	2616
bin	0.00031736413276667	1842
bin	0.00087994132923333	1240
bin	0.0014425185257	780
bin	0.0020050957221667	645
bin	0.0025676729186333	480
bin	0.0031302501151	299
bin	0.0036928273115667	226
bin	0.0042554045080333	166
bin	0.0048179817045	126
bin	0.0053805589009667	84
bin	0.0059431360974333	63
bin	0.0065057132939	47
bin	0.0070682904903667	37
bin	0.0076308676868333	33
bin	0.0081934448833	36
bin	0.0087560220797667	19
bin	0.0093185992762333	19
bin	0.0098811764727	10
bin	0.010443753669167	14
bin	0.011006330865633	7
bin	0.0115689080621	6
bin	0.012131485258567	5
bin	0.012694062455033	9
bin	0.0132566396515	15
scalar SemiDecentralized.host[6].udp 	droppedPkBadChecksum:count 	0
attr interpolationmode  none
attr title  "packets dropped (checksum error), count"
scalar SemiDecentralized.host[6].udp 	droppedPkWrongPort:count 	0
attr interpolationmode  none
attr title  "packets dropped (wrong port), count"
scalar SemiDecentralized.host[6].udp 	passedUpPk:count 	8824
attr interpolationmode  none
attr title  "packets passed up, count"
scalar SemiDecentralized.host[6].udp 	rcvdPk:count 	8824
attr interpolationmode  none
attr source  rcvdPk
attr title  "packets received, count"
scalar SemiDecentralized.host[6].udp 	rcvdPk:sum(packetBytes) 	4588480
attr interpolationmode  none
attr source  rcvdPk
attr title  "packets received, sum(packetBytes)"
scalar SemiDecentralized.host[6].udp 	sentPk:count 	0
attr interpolationmode  none
attr source  sentPk
attr title  "packets sent, count"
scalar SemiDecentralized.host[6].udp 	sentPk:sum(packetBytes) 	0
attr interpolationmode  none
attr source  sentPk
attr title  "packets sent, sum(packetBytes)"
statistic SemiDecentralized.host[6].aodv 	NumSentAODVPackets
field count 430
field mean 215.5
field stddev 124.27456162331
field sum 92665
field sqrsum 26594855
field min 1
field max 430
statistic SemiDecentralized.host[6].aodv 	NumReceivedAODVPackets
field count 25
field mean 13
field stddev 7.3598007219399
field sum 325
field sqrsum 5525
field min 1
field max 25
scalar SemiDecentralized.host[6].aodv 	"Number of LinkBreaks" 	23
scalar SemiDecentralized.host[6].aodv 	RERRSentNow 	25
scalar SemiDecentralized.host[6].rsmgmnt 	"Number Received RouteResponses" 	73
scalar SemiDecentralized.host[6].rsmgmnt 	"Number Sent RREQs" 	73
scalar SemiDecentralized.host[7].wlan[0].mac 	"number of receiveunsigned d packets" 	29781
scalar SemiDecentralized.host[7].wlan[0].mac 	"number of collisions" 	135981
scalar SemiDecentralized.host[7].wlan[0].mac 	"number of internal collisions" 	0
scalar SemiDecentralized.host[7].wlan[0].mac 	"number of retry for AC 0" 	16461
scalar SemiDecentralized.host[7].wlan[0].mac 	"sent and received bits" 	173476176
scalar SemiDecentralized.host[7].wlan[0].mac 	"sent packet within AC 0" 	37202
scalar SemiDecentralized.host[7].wlan[0].mac 	"sent in TXOP " 	0
scalar SemiDecentralized.host[7].wlan[0].mac 	"sentWithoutRetry AC 0" 	28003
scalar SemiDecentralized.host[7].wlan[0].mac 	"numGivenUp AC 0" 	60
scalar SemiDecentralized.host[7].wlan[0].mac 	"numDropped AC 0" 	0
scalar SemiDecentralized.host[7].wlan[0].radio 	lossRate:min 	0
attr interpolationmode  backward-sample-hold
attr title  "packet loss rate, min"
scalar SemiDecentralized.host[7].wlan[0].radio 	lossRate:max 	0.64
attr interpolationmode  backward-sample-hold
attr title  "packet loss rate, max"
scalar SemiDecentralized.host[7].wlan[0].radio 	lossRate:timeavg 	0.16053149296164
attr interpolationmode  backward-sample-hold
attr title  "packet loss rate, timeavg"
statistic SemiDecentralized.host[7].wlan[0].radio 	channelNo:histogram
field count 1
field mean 0
field stddev -nan
field sum 0
field sqrsum 0
field min 0
field max 0
attr interpolationmode  sample-hold
attr title  "channel no, histogram"
bin	-INF	0
bin	-0.5	0
bin	-0.46666666666667	0
bin	-0.43333333333333	0
bin	-0.4	0
bin	-0.36666666666667	0
bin	-0.33333333333333	0
bin	-0.3	0
bin	-0.26666666666667	0
bin	-0.23333333333333	0
bin	-0.2	0
bin	-0.16666666666667	0
bin	-0.13333333333333	0
bin	-0.1	0
bin	-0.066666666666667	0
bin	-0.033333333333333	0
bin	0	1
bin	0.033333333333333	0
bin	0.066666666666667	0
bin	0.1	0
bin	0.13333333333333	0
bin	0.16666666666667	0
bin	0.2	0
bin	0.23333333333333	0
bin	0.26666666666667	0
bin	0.3	0
bin	0.33333333333333	0
bin	0.36666666666667	0
bin	0.4	0
bin	0.43333333333333	0
bin	0.46666666666667	0
bin	0.5	0
scalar SemiDecentralized.host[7].wlan[0].radio 	bitrate:min 	54000000
attr interpolationmode  sample-hold
attr title  "tx bitrate, min"
attr unit  bps
scalar SemiDecentralized.host[7].wlan[0].radio 	bitrate:max 	54000000
attr interpolationmode  sample-hold
attr title  "tx bitrate, max"
attr unit  bps
scalar SemiDecentralized.host[7].wlan[0].radio 	bitrate:timeavg 	54000000
attr interpolationmode  sample-hold
attr title  "tx bitrate, timeavg"
attr unit  bps
scalar SemiDecentralized.host[7].udpApp[0] 	"packets sent" 	8930
scalar SemiDecentralized.host[7].udpApp[0] 	"packets received" 	0
statistic SemiDecentralized.host[7].udpApp[0] 	rcvdPkLifetime:stats
field count 0
field mean -nan
field stddev -nan
field sum 0
field sqrsum 0
field min -nan
field max -nan
attr interpolationmode  none
attr source  messageAge(rcvdPk)
attr title  "received packet lifetime, stats"
attr unit  s
scalar SemiDecentralized.host[7].udp 	droppedPkBadChecksum:count 	0
attr interpolationmode  none
attr title  "packets dropped (checksum error), count"
scalar SemiDecentralized.host[7].udp 	droppedPkWrongPort:count 	0
attr interpolationmode  none
attr title  "packets dropped (wrong port), count"
scalar SemiDecentralized.host[7].udp 	passedUpPk:count 	0
attr interpolationmode  none
attr title  "packets passed up, count"
scalar SemiDecentralized.host[7].udp 	rcvdPk:count 	0
attr interpolationmode  none
attr source  rcvdPk
attr title  "packets received, count"
scalar SemiDecentralized.host[7].udp 	rcvdPk:sum(packetBytes) 	0
attr interpolationmode  none
attr source  rcvdPk
attr title  "packets received, sum(packetBytes)"
scalar SemiDecentralized.host[7].udp 	sentPk:count 	8930
attr interpolationmode  none
attr source  sentPk
attr title  "packets sent, count"
scalar SemiDecentralized.host[7].udp 	sentPk:sum(packetBytes) 	4643600
attr interpolationmode  none
attr source  sentPk
attr title  "packets sent, sum(packetBytes)"
statistic SemiDecentralized.host[7].aodv 	NumSentAODVPackets
field count 1451
field mean 726
field stddev 419.0119330043
field sum 1053426
field sqrsum 1019365226
field min 1
field max 1451
statistic SemiDecentralized.host[7].aodv 	NumReceivedAODVPackets
field count 62
field mean 31.5
field stddev 18.041618552669
field sum 1953
field sqrsum 81375
field min 1
field max 62
scalar SemiDecentralized.host[7].aodv 	"Number of LinkBreaks" 	60
scalar SemiDecentralized.host[7].aodv 	RERRSentNow 	61
scalar SemiDecentralized.host[7].rsmgmnt 	"Number Received RouteResponses" 	174
scalar SemiDecentralized.host[7].rsmgmnt 	"Number Sent RREQs" 	174
scalar SemiDecentralized.host[8].wlan[0].mac 	"number of receiveunsigned d packets" 	34647
scalar SemiDecentralized.host[8].wlan[0].mac 	"number of collisions" 	196785
scalar SemiDecentralized.host[8].wlan[0].mac 	"number of internal collisions" 	0
scalar SemiDecentralized.host[8].wlan[0].mac 	"number of retry for AC 0" 	8531
scalar SemiDecentralized.host[8].wlan[0].mac 	"sent and received bits" 	123461200
scalar SemiDecentralized.host[8].wlan[0].mac 	"sent packet within AC 0" 	26484
scalar SemiDecentralized.host[8].wlan[0].mac 	"sent in TXOP " 	0
scalar SemiDecentralized.host[8].wlan[0].mac 	"sentWithoutRetry AC 0" 	22233
scalar SemiDecentralized.host[8].wlan[0].mac 	"numGivenUp AC 0" 	63
scalar SemiDecentralized.host[8].wlan[0].mac 	"numDropped AC 0" 	0
scalar SemiDecentralized.host[8].wlan[0].radio 	lossRate:min 	0
attr interpolationmode  backward-sample-hold
attr title  "packet loss rate, min"
scalar SemiDecentralized.host[8].wlan[0].radio 	lossRate:max 	0.64
attr interpolationmode  backward-sample-hold
attr title  "packet loss rate, max"
scalar SemiDecentralized.host[8].wlan[0].radio 	lossRate:timeavg 	0.21864702660206
attr interpolationmode  backward-sample-hold
attr title  "packet loss rate, timeavg"
statistic SemiDecentralized.host[8].wlan[0].radio 	channelNo:histogram
field count 1
field mean 0
field stddev -nan
field sum 0
field sqrsum 0
field min 0
field max 0
attr interpolationmode  sample-hold
attr title  "channel no, histogram"
bin	-INF	0
bin	-0.5	0
bin	-0.46666666666667	0
bin	-0.43333333333333	0
bin	-0.4	0
bin	-0.36666666666667	0
bin	-0.33333333333333	0
bin	-0.3	0
bin	-0.26666666666667	0
bin	-0.23333333333333	0
bin	-0.2	0
bin	-0.16666666666667	0
bin	-0.13333333333333	0
bin	-0.1	0
bin	-0.066666666666667	0
bin	-0.033333333333333	0
bin	0	1
bin	0.033333333333333	0
bin	0.066666666666667	0
bin	0.1	0
bin	0.13333333333333	0
bin	0.16666666666667	0
bin	0.2	0
bin	0.23333333333333	0
bin	0.26666666666667	0
bin	0.3	0
bin	0.33333333333333	0
bin	0.36666666666667	0
bin	0.4	0
bin	0.43333333333333	0
bin	0.46666666666667	0
bin	0.5	0
scalar SemiDecentralized.host[8].wlan[0].radio 	bitrate:min 	54000000
attr interpolationmode  sample-hold
attr title  "tx bitrate, min"
attr unit  bps
scalar SemiDecentralized.host[8].wlan[0].radio 	bitrate:max 	54000000
attr interpolationmode  sample-hold
attr title  "tx bitrate, max"
attr unit  bps
scalar SemiDecentralized.host[8].wlan[0].radio 	bitrate:timeavg 	54000000
attr interpolationmode  sample-hold
attr title  "tx bitrate, timeavg"
attr unit  bps
statistic SemiDecentralized.host[8].udpApp[0] 	endToEndDelay:histogram
field count 7342
field mean 0.0066055918467928
field stddev 0.0068318115120296
field sum 48.498255339152
field sqrsum 0.66299093395402
field min 0.001511968556
field max 0.091503371638
attr interpolationmode  none
attr source  messageAge(rcvdPk)
attr title  "end-to-end delay, histogram"
attr unit  s
bin	-INF	0
bin	-0.0162211171105	0
bin	-0.0137959021579	0
bin	-0.0113706872053	0
bin	-0.0089454722527	0
bin	-0.0065202573001	0
bin	-0.0040950423475	0
bin	-0.0016698273949	0
bin	0.0007553875577	3276
bin	0.0031806025103	700
bin	0.0056058174629	1107
bin	0.0080310324155	966
bin	0.0104562473681	446
bin	0.0128814623207	321
bin	0.0153066772733	103
bin	0.0177318922259	111
bin	0.0201571071785	85
bin	0.0225823221311	28
bin	0.0250075370837	33
bin	0.0274327520363	34
bin	0.0298579669889	38
bin	0.0322831819415	26
bin	0.0347083968941	9
bin	0.0371336118467	6
bin	0.0395588267993	18
bin	0.0419840417519	15
bin	0.0444092567045	9
bin	0.0468344716571	1
bin	0.0492596866097	1
bin	0.0516849015623	1
bin	0.0541101165149	0
bin	0.0565353314675	8
scalar SemiDecentralized.host[8].udp 	droppedPkBadChecksum:count 	0
attr interpolationmode  none
attr title  "packets dropped (checksum error), count"
scalar SemiDecentralized.host[8].udp 	droppedPkWrongPort:count 	0
attr interpolationmode  none
attr title  "packets dropped (wrong port), count"
scalar SemiDecentralized.host[8].udp 	passedUpPk:count 	7342
attr interpolationmode  none
attr title  "packets passed up, count"
scalar SemiDecentralized.host[8].udp 	rcvdPk:count 	7342
attr interpolationmode  none
attr source  rcvdPk
attr title  "packets received, count"
scalar SemiDecentralized.host[8].udp 	rcvdPk:sum(packetBytes) 	3817840
attr interpolationmode  none
attr source  rcvdPk
attr title  "packets received, sum(packetBytes)"
scalar SemiDecentralized.host[8].udp 	sentPk:count 	0
attr interpolationmode  none
attr source  sentPk
attr title  "packets sent, count"
scalar SemiDecentralized.host[8].udp 	sentPk:sum(packetBytes) 	0
attr interpolationmode  none
attr source  sentPk
attr title  "packets sent, sum(packetBytes)"
statistic SemiDecentralized.host[8].aodv 	NumSentAODVPackets
field count 996
field mean 498.5
field stddev 287.6647354126
field sum 496506
field sqrsum 329845486
field min 1
field max 996
statistic SemiDecentralized.host[8].aodv 	NumReceivedAODVPackets
field count 70
field mean 35.5
field stddev 20.351085147153
field sum 2485
field sqrsum 116795
field min 1
field max 70
scalar SemiDecentralized.host[8].aodv 	"Number of LinkBreaks" 	63
scalar SemiDecentralized.host[8].aodv 	RERRSentNow 	70
scalar SemiDecentralized.host[8].rsmgmnt 	"Number Received RouteResponses" 	251
scalar SemiDecentralized.host[8].rsmgmnt 	"Number Sent RREQs" 	251
scalar SemiDecentralized.host[9].wlan[0].mac 	"number of receiveunsigned d packets" 	4
scalar SemiDecentralized.host[9].wlan[0].mac 	"number of collisions" 	93817
scalar SemiDecentralized.host[9].wlan[0].mac 	"number of internal collisions" 	0
scalar SemiDecentralized.host[9].wlan[0].mac 	"number of retry for AC 0" 	9123
scalar SemiDecentralized.host[9].wlan[0].mac 	"sent and received bits" 	40583296
scalar SemiDecentralized.host[9].wlan[0].mac 	"sent packet within AC 0" 	8661
scalar SemiDecentralized.host[9].wlan[0].mac 	"sent in TXOP " 	0
scalar SemiDecentralized.host[9].wlan[0].mac 	"sentWithoutRetry AC 0" 	5966
scalar SemiDecentralized.host[9].wlan[0].mac 	"numGivenUp AC 0" 	205
scalar SemiDecentralized.host[9].wlan[0].mac 	"numDropped AC 0" 	0
scalar SemiDecentralized.host[9].wlan[0].radio 	lossRate:min 	0
attr interpolationmode  backward-sample-hold
attr title  "packet loss rate, min"
scalar SemiDecentralized.host[9].wlan[0].radio 	lossRate:max 	0.68
attr interpolationmode  backward-sample-hold
attr title  "packet loss rate, max"
scalar SemiDecentralized.host[9].wlan[0].radio 	lossRate:timeavg 	0.25298480608854
attr interpolationmode  backward-sample-hold
attr title  "packet loss rate, timeavg"
statistic SemiDecentralized.host[9].wlan[0].radio 	channelNo:histogram
field count 1
field mean 0
field stddev -nan
field sum 0
field sqrsum 0
field min 0
field max 0
attr interpolationmode  sample-hold
attr title  "channel no, histogram"
bin	-INF	0
bin	-0.5	0
bin	-0.46666666666667	0
bin	-0.43333333333333	0
bin	-0.4	0
bin	-0.36666666666667	0
bin	-0.33333333333333	0
bin	-0.3	0
bin	-0.26666666666667	0
bin	-0.23333333333333	0
bin	-0.2	0
bin	-0.16666666666667	0
bin	-0.13333333333333	0
bin	-0.1	0
bin	-0.066666666666667	0
bin	-0.033333333333333	0
bin	0	1
bin	0.033333333333333	0
bin	0.066666666666667	0
bin	0.1	0
bin	0.13333333333333	0
bin	0.16666666666667	0
bin	0.2	0
bin	0.23333333333333	0
bin	0.26666666666667	0
bin	0.3	0
bin	0.33333333333333	0
bin	0.36666666666667	0
bin	0.4	0
bin	0.43333333333333	0
bin	0.46666666666667	0
bin	0.5	0
scalar SemiDecentralized.host[9].wlan[0].radio 	bitrate:min 	54000000
attr interpolationmode  sample-hold
attr title  "tx bitrate, min"
attr unit  bps
scalar SemiDecentralized.host[9].wlan[0].radio 	bitrate:max 	54000000
attr interpolationmode  sample-hold
attr title  "tx bitrate, max"
attr unit  bps
scalar SemiDecentralized.host[9].wlan[0].radio 	bitrate:timeavg 	54000000
attr interpolationmode  sample-hold
attr title  "tx bitrate, timeavg"
attr unit  bps
scalar SemiDecentralized.host[9].udpApp[0] 	"packets sent" 	8866
scalar SemiDecentralized.host[9].udpApp[0] 	"packets received" 	0
statistic SemiDecentralized.host[9].udpApp[0] 	rcvdPkLifetime:stats
field count 0
field mean -nan
field stddev -nan
field sum 0
field sqrsum 0
field min -nan
field max -nan
attr interpolationmode  none
attr source  messageAge(rcvdPk)
attr title  "received packet lifetime, stats"
attr unit  s
scalar SemiDecentralized.host[9].udp 	droppedPkBadChecksum:count 	0
attr interpolationmode  none
attr title  "packets dropped (checksum error), count"
scalar SemiDecentralized.host[9].udp 	droppedPkWrongPort:count 	0
attr interpolationmode  none
attr title  "packets dropped (wrong port), count"
scalar SemiDecentralized.host[9].udp 	passedUpPk:count 	0
attr interpolationmode  none
attr title  "packets passed up, count"
scalar SemiDecentralized.host[9].udp 	rcvdPk:count 	0
attr interpolationmode  none
attr source  rcvdPk
attr title  "packets received, count"
scalar SemiDecentralized.host[9].udp 	rcvdPk:sum(packetBytes) 	0
attr interpolationmode  none
attr source  rcvdPk
attr title  "packets received, sum(packetBytes)"
scalar SemiDecentralized.host[9].udp 	sentPk:count 	8866
attr interpolationmode  none
attr source  sentPk
attr title  "packets sent, count"
scalar SemiDecentralized.host[9].udp 	sentPk:sum(packetBytes) 	4610320
attr interpolationmode  none
attr source  sentPk
attr title  "packets sent, sum(packetBytes)"
statistic SemiDecentralized.host[9].aodv 	NumSentAODVPackets
field count 616
field mean 308.5
field stddev 177.96816194664
field sum 190036
field sqrsum 78104796
field min 1
field max 616
statistic SemiDecentralized.host[9].aodv 	NumReceivedAODVPackets
field count 206
field mean 103.5
field stddev 59.611240550755
field sum 21321
field sqrsum 2935191
field min 1
field max 206
scalar SemiDecentralized.host[9].aodv 	"Number of LinkBreaks" 	205
scalar SemiDecentralized.host[9].aodv 	RERRSentNow 	205
scalar SemiDecentralized.host[9].rsmgmnt 	"Number Received RouteResponses" 	616
scalar SemiDecentralized.host[9].rsmgmnt 	"Number Sent RREQs" 	616
scalar SemiDecentralized.host[10].wlan[0].mac 	"number of receiveunsigned d packets" 	15318
scalar SemiDecentralized.host[10].wlan[0].mac 	"number of collisions" 	128590
scalar SemiDecentralized.host[10].wlan[0].mac 	"number of internal collisions" 	0
scalar SemiDecentralized.host[10].wlan[0].mac 	"number of retry for AC 0" 	2324
scalar SemiDecentralized.host[10].wlan[0].mac 	"sent and received bits" 	36068544
scalar SemiDecentralized.host[10].wlan[0].mac 	"sent packet within AC 0" 	7696
scalar SemiDecentralized.host[10].wlan[0].mac 	"sent in TXOP " 	0
scalar SemiDecentralized.host[10].wlan[0].mac 	"sentWithoutRetry AC 0" 	6378
scalar SemiDecentralized.host[10].wlan[0].mac 	"numGivenUp AC 0" 	17
scalar SemiDecentralized.host[10].wlan[0].mac 	"numDropped AC 0" 	0
scalar SemiDecentralized.host[10].wlan[0].radio 	lossRate:min 	0
attr interpolationmode  backward-sample-hold
attr title  "packet loss rate, min"
scalar SemiDecentralized.host[10].wlan[0].radio 	lossRate:max 	0.66
attr interpolationmode  backward-sample-hold
attr title  "packet loss rate, max"
scalar SemiDecentralized.host[10].wlan[0].radio 	lossRate:timeavg 	0.2074924806622
attr interpolationmode  backward-sample-hold
attr title  "packet loss rate, timeavg"
statistic SemiDecentralized.host[10].wlan[0].radio 	channelNo:histogram
field count 1
field mean 0
field stddev -nan
field sum 0
field sqrsum 0
field min 0
field max 0
attr interpolationmode  sample-hold
attr title  "channel no, histogram"
bin	-INF	0
bin	-0.5	0
bin	-0.46666666666667	0
bin	-0.43333333333333	0
bin	-0.4	0
bin	-0.36666666666667	0
bin	-0.33333333333333	0
bin	-0.3	0
bin	-0.26666666666667	0
bin	-0.23333333333333	0
bin	-0.2	0
bin	-0.16666666666667	0
bin	-0.13333333333333	0
bin	-0.1	0
bin	-0.066666666666667	0
bin	-0.033333333333333	0
bin	0	1
bin	0.033333333333333	0
bin	0.066666666666667	0
bin	0.1	0
bin	0.13333333333333	0
bin	0.16666666666667	0
bin	0.2	0
bin	0.23333333333333	0
bin	0.26666666666667	0
bin	0.3	0
bin	0.33333333333333	0
bin	0.36666666666667	0
bin	0.4	0
bin	0.43333333333333	0
bin	0.46666666666667	0
bin	0.5	0
scalar SemiDecentralized.host[10].wlan[0].radio 	bitrate:min 	54000000
attr interpolationmode  sample-hold
attr title  "tx bitrate, min"
attr unit  bps
scalar SemiDecentralized.host[10].wlan[0].radio 	bitrate:max 	54000000
attr interpolationmode  sample-hold
attr title  "tx bitrate, max"
attr unit  bps
scalar SemiDecentralized.host[10].wlan[0].radio 	bitrate:timeavg 	54000000
attr interpolationmode  sample-hold
attr title  "tx bitrate, timeavg"
attr unit  bps
statistic SemiDecentralized.host[10].udpApp[0] 	endToEndDelay:histogram
field count 7310
field mean 0.010556856816746
field stddev 0.069861779871788
field sum 77.170623330415
field sqrsum 36.487483729576
field min 0.001968430596
field max 2.014085975836
attr interpolationmode  none
attr source  messageAge(rcvdPk)
attr title  "end-to-end delay, histogram"
attr unit  s
bin	-INF	0
bin	-0.0112814662585	0
bin	-0.0095148133445667	0
bin	-0.0077481604306333	0
bin	-0.0059815075167	0
bin	-0.0042148546027667	0
bin	-0.0024482016888333	0
bin	-0.0006815487749	0
bin	0.0010851041390333	1159
bin	0.0028517570529667	2546
bin	0.0046184099669	1939
bin	0.0063850628808333	327
bin	0.0081517157947667	96
bin	0.0099183687087	144
bin	0.011685021622633	192
bin	0.013451674536567	200
bin	0.0152183274505	153
bin	0.016984980364433	72
bin	0.018751633278367	57
bin	0.0205182861923	20
bin	0.022284939106233	34
bin	0.024051592020167	49
bin	0.0258182449341	68
bin	0.027584897848033	72
bin	0.029351550761967	52
bin	0.0311182036759	33
bin	0.032884856589833	5
bin	0.034651509503767	8
bin	0.0364181624177	14
bin	0.038184815331633	8
bin	0.039951468245567	0
bin	0.0417181211595	62
scalar SemiDecentralized.host[10].udp 	droppedPkBadChecksum:count 	0
attr interpolationmode  none
attr title  "packets dropped (checksum error), count"
scalar SemiDecentralized.host[10].udp 	droppedPkWrongPort:count 	0
attr interpolationmode  none
attr title  "packets dropped (wrong port), count"
scalar SemiDecentralized.host[10].udp 	passedUpPk:count 	7310
attr interpolationmode  none
attr title  "packets passed up, count"
scalar SemiDecentralized.host[10].udp 	rcvdPk:count 	7310
attr interpolationmode  none
attr source  rcvdPk
attr title  "packets received, count"
scalar SemiDecentralized.host[10].udp 	rcvdPk:sum(packetBytes) 	3801200
attr interpolationmode  none
attr source  rcvdPk
attr title  "packets received, sum(packetBytes)"
scalar SemiDecentralized.host[10].udp 	sentPk:count 	0
attr interpolationmode  none
attr source  sentPk
attr title  "packets sent, count"
scalar SemiDecentralized.host[10].udp 	sentPk:sum(packetBytes) 	0
attr interpolationmode  none
attr source  sentPk
attr title  "packets sent, sum(packetBytes)"
statistic SemiDecentralized.host[10].aodv 	NumSentAODVPackets
field count 283
field mean 142
field stddev 81.839273375725
field sum 40186
field sqrsum 7595154
field min 1
field max 283
statistic SemiDecentralized.host[10].aodv 	NumReceivedAODVPackets
field count 17
field mean 9
field stddev 5.049752469181
field sum 153
field sqrsum 1785
field min 1
field max 17
scalar SemiDecentralized.host[10].aodv 	"Number of LinkBreaks" 	17
scalar SemiDecentralized.host[10].aodv 	RERRSentNow 	17
scalar SemiDecentralized.host[10].rsmgmnt 	"Number Received RouteResponses" 	36
scalar SemiDecentralized.host[10].rsmgmnt 	"Number Sent RREQs" 	36
scalar SemiDecentralized.host[11].wlan[0].mac 	"number of receiveunsigned d packets" 	1282
scalar SemiDecentralized.host[11].wlan[0].mac 	"number of collisions" 	83526
scalar SemiDecentralized.host[11].wlan[0].mac 	"number of internal collisions" 	0
scalar SemiDecentralized.host[11].wlan[0].mac 	"number of retry for AC 0" 	4946
scalar SemiDecentralized.host[11].wlan[0].mac 	"sent and received bits" 	46819616
scalar SemiDecentralized.host[11].wlan[0].mac 	"sent packet within AC 0" 	10000
scalar SemiDecentralized.host[11].wlan[0].mac 	"sent in TXOP " 	0
scalar SemiDecentralized.host[11].wlan[0].mac 	"sentWithoutRetry AC 0" 	8001
scalar SemiDecentralized.host[11].wlan[0].mac 	"numGivenUp AC 0" 	110
scalar SemiDecentralized.host[11].wlan[0].mac 	"numDropped AC 0" 	0
scalar SemiDecentralized.host[11].wlan[0].radio 	lossRate:min 	0.02
attr interpolationmode  backward-sample-hold
attr title  "packet loss rate, min"
scalar SemiDecentralized.host[11].wlan[0].radio 	lossRate:max 	0.7
attr interpolationmode  backward-sample-hold
attr title  "packet loss rate, max"
scalar SemiDecentralized.host[11].wlan[0].radio 	lossRate:timeavg 	0.3278612483434
attr interpolationmode  backward-sample-hold
attr title  "packet loss rate, timeavg"
statistic SemiDecentralized.host[11].wlan[0].radio 	channelNo:histogram
field count 1
field mean 0
field stddev -nan
field sum 0
field sqrsum 0
field min 0
field max 0
attr interpolationmode  sample-hold
attr title  "channel no, histogram"
bin	-INF	0
bin	-0.5	0
bin	-0.46666666666667	0
bin	-0.43333333333333	0
bin	-0.4	0
bin	-0.36666666666667	0
bin	-0.33333333333333	0
bin	-0.3	0
bin	-0.26666666666667	0
bin	-0.23333333333333	0
bin	-0.2	0
bin	-0.16666666666667	0
bin	-0.13333333333333	0
bin	-0.1	0
bin	-0.066666666666667	0
bin	-0.033333333333333	0
bin	0	1
bin	0.033333333333333	0
bin	0.066666666666667	0
bin	0.1	0
bin	0.13333333333333	0
bin	0.16666666666667	0
bin	0.2	0
bin	0.23333333333333	0
bin	0.26666666666667	0
bin	0.3	0
bin	0.33333333333333	0
bin	0.36666666666667	0
bin	0.4	0
bin	0.43333333333333	0
bin	0.46666666666667	0
bin	0.5	0
scalar SemiDecentralized.host[11].wlan[0].radio 	bitrate:min 	54000000
attr interpolationmode  sample-hold
attr title  "tx bitrate, min"
attr unit  bps
scalar SemiDecentralized.host[11].wlan[0].radio 	bitrate:max 	54000000
attr interpolationmode  sample-hold
attr title  "tx bitrate, max"
attr unit  bps
scalar SemiDecentralized.host[11].wlan[0].radio 	bitrate:timeavg 	54000000
attr interpolationmode  sample-hold
attr title  "tx bitrate, timeavg"
attr unit  bps
scalar SemiDecentralized.host[11].udpApp[0] 	"packets sent" 	8868
scalar SemiDecentralized.host[11].udpApp[0] 	"packets received" 	0
statistic SemiDecentralized.host[11].udpApp[0] 	rcvdPkLifetime:stats
field count 0
field mean -nan
field stddev -nan
field sum 0
field sqrsum 0
field min -nan
field max -nan
attr interpolationmode  none
attr source  messageAge(rcvdPk)
attr title  "received packet lifetime, stats"
attr unit  s
scalar SemiDecentralized.host[11].udp 	droppedPkBadChecksum:count 	0
attr interpolationmode  none
attr title  "packets dropped (checksum error), count"
scalar SemiDecentralized.host[11].udp 	droppedPkWrongPort:count 	0
attr interpolationmode  none
attr title  "packets dropped (wrong port), count"
scalar SemiDecentralized.host[11].udp 	passedUpPk:count 	0
attr interpolationmode  none
attr title  "packets passed up, count"
scalar SemiDecentralized.host[11].udp 	rcvdPk:count 	0
attr interpolationmode  none
attr source  rcvdPk
attr title  "packets received, count"
scalar SemiDecentralized.host[11].udp 	rcvdPk:sum(packetBytes) 	0
attr interpolationmode  none
attr source  rcvdPk
attr title  "packets received, sum(packetBytes)"
scalar SemiDecentralized.host[11].udp 	sentPk:count 	8868
attr interpolationmode  none
attr source  sentPk
attr title  "packets sent, count"
scalar SemiDecentralized.host[11].udp 	sentPk:sum(packetBytes) 	4611360
attr interpolationmode  none
attr source  sentPk
attr title  "packets sent, sum(packetBytes)"
statistic SemiDecentralized.host[11].aodv 	NumSentAODVPackets
field count 381
field mean 191
field stddev 110.12946926232
field sum 72771
field sqrsum 18508091
field min 1
field max 381
statistic SemiDecentralized.host[11].aodv 	NumReceivedAODVPackets
field count 114
field mean 57.5
field stddev 33.052987762077
field sum 6555
field sqrsum 500365
field min 1
field max 114
scalar SemiDecentralized.host[11].aodv 	"Number of LinkBreaks" 	110
scalar SemiDecentralized.host[11].aodv 	RERRSentNow 	112
scalar SemiDecentralized.host[11].rsmgmnt 	"Number Received RouteResponses" 	344
scalar SemiDecentralized.host[11].rsmgmnt 	"Number Sent RREQs" 	344
scalar SemiDecentralized.host[12].wlan[0].mac 	"number of receiveunsigned d packets" 	19680
scalar SemiDecentralized.host[12].wlan[0].mac 	"number of collisions" 	61608
scalar SemiDecentralized.host[12].wlan[0].mac 	"number of internal collisions" 	0
scalar SemiDecentralized.host[12].wlan[0].mac 	"number of retry for AC 0" 	4492
scalar SemiDecentralized.host[12].wlan[0].mac 	"sent and received bits" 	55471600
scalar SemiDecentralized.host[12].wlan[0].mac 	"sent packet within AC 0" 	11866
scalar SemiDecentralized.host[12].wlan[0].mac 	"sent in TXOP " 	0
scalar SemiDecentralized.host[12].wlan[0].mac 	"sentWithoutRetry AC 0" 	9835
scalar SemiDecentralized.host[12].wlan[0].mac 	"numGivenUp AC 0" 	59
scalar SemiDecentralized.host[12].wlan[0].mac 	"numDropped AC 0" 	0
scalar SemiDecentralized.host[12].wlan[0].radio 	lossRate:min 	0
attr interpolationmode  backward-sample-hold
attr title  "packet loss rate, min"
scalar SemiDecentralized.host[12].wlan[0].radio 	lossRate:max 	0.58
attr interpolationmode  backward-sample-hold
attr title  "packet loss rate, max"
scalar SemiDecentralized.host[12].wlan[0].radio 	lossRate:timeavg 	0.17930965393355
attr interpolationmode  backward-sample-hold
attr title  "packet loss rate, timeavg"
statistic SemiDecentralized.host[12].wlan[0].radio 	channelNo:histogram
field count 1
field mean 0
field stddev -nan
field sum 0
field sqrsum 0
field min 0
field max 0
attr interpolationmode  sample-hold
attr title  "channel no, histogram"
bin	-INF	0
bin	-0.5	0
bin	-0.46666666666667	0
bin	-0.43333333333333	0
bin	-0.4	0
bin	-0.36666666666667	0
bin	-0.33333333333333	0
bin	-0.3	0
bin	-0.26666666666667	0
bin	-0.23333333333333	0
bin	-0.2	0
bin	-0.16666666666667	0
bin	-0.13333333333333	0
bin	-0.1	0
bin	-0.066666666666667	0
bin	-0.033333333333333	0
bin	0	1
bin	0.033333333333333	0
bin	0.066666666666667	0
bin	0.1	0
bin	0.13333333333333	0
bin	0.16666666666667	0
bin	0.2	0
bin	0.23333333333333	0
bin	0.26666666666667	0
bin	0.3	0
bin	0.33333333333333	0
bin	0.36666666666667	0
bin	0.4	0
bin	0.43333333333333	0
bin	0.46666666666667	0
bin	0.5	0
scalar SemiDecentralized.host[12].wlan[0].radio 	bitrate:min 	54000000
attr interpolationmode  sample-hold
attr title  "tx bitrate, min"
attr unit  bps
scalar SemiDecentralized.host[12].wlan[0].radio 	bitrate:max 	54000000
attr interpolationmode  sample-hold
attr title  "tx bitrate, max"
attr unit  bps
scalar SemiDecentralized.host[12].wlan[0].radio 	bitrate:timeavg 	54000000
attr interpolationmode  sample-hold
attr title  "tx bitrate, timeavg"
attr unit  bps
statistic SemiDecentralized.host[12].udpApp[0] 	endToEndDelay:histogram
field count 7248
field mean 0.01260871331388
field stddev 0.061080225258025
field sum 91.387954099005
field sqrsum 28.189348034214
field min 0.001968509176
field max 2.018523829263
attr interpolationmode  none
attr source  messageAge(rcvdPk)
attr title  "end-to-end delay, histogram"
attr unit  s
bin	-INF	0
bin	-0.0150263143785	0
bin	-0.012678604571233	0
bin	-0.010330894763967	0
bin	-0.0079831849567	0
bin	-0.0056354751494333	0
bin	-0.0032877653421667	0
bin	-0.0009400555349	0
bin	0.0014076542723667	1176
bin	0.0037553640796333	2039
bin	0.0061030738869	1206
bin	0.0084507836941667	887
bin	0.010798493501433	375
bin	0.0131462033087	158
bin	0.015493913115967	170
bin	0.017841622923233	282
bin	0.0201893327305	304
bin	0.022537042537767	286
bin	0.024884752345033	96
bin	0.0272324621523	41
bin	0.029580171959567	61
bin	0.031927881766833	24
bin	0.0342755915741	21
bin	0.036623301381367	17
bin	0.038971011188633	24
bin	0.0413187209959	9
bin	0.043666430803167	5
bin	0.046014140610433	5
bin	0.0483618504177	7
bin	0.050709560224967	3
bin	0.053057270032233	7
bin	0.0554049798395	45
scalar SemiDecentralized.host[12].udp 	droppedPkBadChecksum:count 	0
attr interpolationmode  none
attr title  "packets dropped (checksum error), count"
scalar SemiDecentralized.host[12].udp 	droppedPkWrongPort:count 	0
attr interpolationmode  none
attr title  "packets dropped (wrong port), count"
scalar SemiDecentralized.host[12].udp 	passedUpPk:count 	7248
attr interpolationmode  none
attr title  "packets passed up, count"
scalar SemiDecentralized.host[12].udp 	rcvdPk:count 	7248
attr interpolationmode  none
attr source  rcvdPk
attr title  "packets received, count"
scalar SemiDecentralized.host[12].udp 	rcvdPk:sum(packetBytes) 	3768960
attr interpolationmode  none
attr source  rcvdPk
attr title  "packets received, sum(packetBytes)"
scalar SemiDecentralized.host[12].udp 	sentPk:count 	0
attr interpolationmode  none
attr source  sentPk
attr title  "packets sent, count"
scalar SemiDecentralized.host[12].udp 	sentPk:sum(packetBytes) 	0
attr interpolationmode  none
attr source  sentPk
attr title  "packets sent, sum(packetBytes)"
statistic SemiDecentralized.host[12].aodv 	NumSentAODVPackets
field count 508
field mean 254.5
field stddev 146.79123497902
field sum 129286
field sqrsum 43827954
field min 1
field max 508
statistic SemiDecentralized.host[12].aodv 	NumReceivedAODVPackets
field count 64
field mean 32.5
field stddev 18.618986725025
field sum 2080
field sqrsum 89440
field min 1
field max 64
scalar SemiDecentralized.host[12].aodv 	"Number of LinkBreaks" 	59
scalar SemiDecentralized.host[12].aodv 	RERRSentNow 	64
scalar SemiDecentralized.host[12].rsmgmnt 	"Number Received RouteResponses" 	264
scalar SemiDecentralized.host[12].rsmgmnt 	"Number Sent RREQs" 	264
scalar SemiDecentralized.host[13].wlan[0].mac 	"number of receiveunsigned d packets" 	554
scalar SemiDecentralized.host[13].wlan[0].mac 	"number of collisions" 	93881
scalar SemiDecentralized.host[13].wlan[0].mac 	"number of internal collisions" 	0
scalar SemiDecentralized.host[13].wlan[0].mac 	"number of retry for AC 0" 	20578
scalar SemiDecentralized.host[13].wlan[0].mac 	"sent and received bits" 	42441536
scalar SemiDecentralized.host[13].wlan[0].mac 	"sent packet within AC 0" 	9060
scalar SemiDecentralized.host[13].wlan[0].mac 	"sent in TXOP " 	0
scalar SemiDecentralized.host[13].wlan[0].mac 	"sentWithoutRetry AC 0" 	1516
scalar SemiDecentralized.host[13].wlan[0].mac 	"numGivenUp AC 0" 	302
scalar SemiDecentralized.host[13].wlan[0].mac 	"numDropped AC 0" 	0
scalar SemiDecentralized.host[13].wlan[0].radio 	lossRate:min 	0
attr interpolationmode  backward-sample-hold
attr title  "packet loss rate, min"
scalar SemiDecentralized.host[13].wlan[0].radio 	lossRate:max 	0.7
attr interpolationmode  backward-sample-hold
attr title  "packet loss rate, max"
scalar SemiDecentralized.host[13].wlan[0].radio 	lossRate:timeavg 	0.26191923284276
attr interpolationmode  backward-sample-hold
attr title  "packet loss rate, timeavg"
statistic SemiDecentralized.host[13].wlan[0].radio 	channelNo:histogram
field count 1
field mean 0
field stddev -nan
field sum 0
field sqrsum 0
field min 0
field max 0
attr interpolationmode  sample-hold
attr title  "channel no, histogram"
bin	-INF	0
bin	-0.5	0
bin	-0.46666666666667	0
bin	-0.43333333333333	0
bin	-0.4	0
bin	-0.36666666666667	0
bin	-0.33333333333333	0
bin	-0.3	0
bin	-0.26666666666667	0
bin	-0.23333333333333	0
bin	-0.2	0
bin	-0.16666666666667	0
bin	-0.13333333333333	0
bin	-0.1	0
bin	-0.066666666666667	0
bin	-0.033333333333333	0
bin	0	1
bin	0.033333333333333	0
bin	0.066666666666667	0
bin	0.1	0
bin	0.13333333333333	0
bin	0.16666666666667	0
bin	0.2	0
bin	0.23333333333333	0
bin	0.26666666666667	0
bin	0.3	0
bin	0.33333333333333	0
bin	0.36666666666667	0
bin	0.4	0
bin	0.43333333333333	0
bin	0.46666666666667	0
bin	0.5	0
scalar SemiDecentralized.host[13].wlan[0].radio 	bitrate:min 	54000000
attr interpolationmode  sample-hold
attr title  "tx bitrate, min"
attr unit  bps
scalar SemiDecentralized.host[13].wlan[0].radio 	bitrate:max 	54000000
attr interpolationmode  sample-hold
attr title  "tx bitrate, max"
attr unit  bps
scalar SemiDecentralized.host[13].wlan[0].radio 	bitrate:timeavg 	54000000
attr interpolationmode  sample-hold
attr title  "tx bitrate, timeavg"
attr unit  bps
scalar SemiDecentralized.host[13].udpApp[0] 	"packets sent" 	8824
scalar SemiDecentralized.host[13].udpApp[0] 	"packets received" 	0
statistic SemiDecentralized.host[13].udpApp[0] 	rcvdPkLifetime:stats
field count 0
field mean -nan
field stddev -nan
field sum 0
field sqrsum 0
field min -nan
field max -nan
attr interpolationmode  none
attr source  messageAge(rcvdPk)
attr title  "received packet lifetime, stats"
attr unit  s
scalar SemiDecentralized.host[13].udp 	droppedPkBadChecksum:count 	0
attr interpolationmode  none
attr title  "packets dropped (checksum error), count"
scalar SemiDecentralized.host[13].udp 	droppedPkWrongPort:count 	0
attr interpolationmode  none
attr title  "packets dropped (wrong port), count"
scalar SemiDecentralized.host[13].udp 	passedUpPk:count 	0
attr interpolationmode  none
attr title  "packets passed up, count"
scalar SemiDecentralized.host[13].udp 	rcvdPk:count 	0
attr interpolationmode  none
attr source  rcvdPk
attr title  "packets received, count"
scalar SemiDecentralized.host[13].udp 	rcvdPk:sum(packetBytes) 	0
attr interpolationmode  none
attr source  rcvdPk
attr title  "packets received, sum(packetBytes)"
scalar SemiDecentralized.host[13].udp 	sentPk:count 	8824
attr interpolationmode  none
attr source  sentPk
attr title  "packets sent, count"
scalar SemiDecentralized.host[13].udp 	sentPk:sum(packetBytes) 	4588480
attr interpolationmode  none
attr source  sentPk
attr title  "packets sent, sum(packetBytes)"
statistic SemiDecentralized.host[13].aodv 	NumSentAODVPackets
field count 1457
field mean 729
field stddev 420.74398391421
field sum 1062153
field sqrsum 1032058665
field min 1
field max 1457
statistic SemiDecentralized.host[13].aodv 	NumReceivedAODVPackets
field count 303
field mean 152
field stddev 87.612784455238
field sum 46056
field sqrsum 9318664
field min 1
field max 303
scalar SemiDecentralized.host[13].aodv 	"Number of LinkBreaks" 	302
scalar SemiDecentralized.host[13].aodv 	RERRSentNow 	302
scalar SemiDecentralized.host[13].rsmgmnt 	"Number Received RouteResponses" 	1442
scalar SemiDecentralized.host[13].rsmgmnt 	"Number Sent RREQs" 	1442
scalar SemiDecentralized.host[14].wlan[0].mac 	"number of receiveunsigned d packets" 	38210
scalar SemiDecentralized.host[14].wlan[0].mac 	"number of collisions" 	136037
scalar SemiDecentralized.host[14].wlan[0].mac 	"number of internal collisions" 	0
scalar SemiDecentralized.host[14].wlan[0].mac 	"number of retry for AC 0" 	11012
scalar SemiDecentralized.host[14].wlan[0].mac 	"sent and received bits" 	133553952
scalar SemiDecentralized.host[14].wlan[0].mac 	"sent packet within AC 0" 	28631
scalar SemiDecentralized.host[14].wlan[0].mac 	"sent in TXOP " 	0
scalar SemiDecentralized.host[14].wlan[0].mac 	"sentWithoutRetry AC 0" 	23580
scalar SemiDecentralized.host[14].wlan[0].mac 	"numGivenUp AC 0" 	98
scalar SemiDecentralized.host[14].wlan[0].mac 	"numDropped AC 0" 	0
scalar SemiDecentralized.host[14].wlan[0].radio 	lossRate:min 	0
attr interpolationmode  backward-sample-hold
attr title  "packet loss rate, min"
scalar SemiDecentralized.host[14].wlan[0].radio 	lossRate:max 	0.64
attr interpolationmode  backward-sample-hold
attr title  "packet loss rate, max"
scalar SemiDecentralized.host[14].wlan[0].radio 	lossRate:timeavg 	0.19921547558158
attr interpolationmode  backward-sample-hold
attr title  "packet loss rate, timeavg"
statistic SemiDecentralized.host[14].wlan[0].radio 	channelNo:histogram
field count 1
field mean 0
field stddev -nan
field sum 0
field sqrsum 0
field min 0
field max 0
attr interpolationmode  sample-hold
attr title  "channel no, histogram"
bin	-INF	0
bin	-0.5	0
bin	-0.46666666666667	0
bin	-0.43333333333333	0
bin	-0.4	0
bin	-0.36666666666667	0
bin	-0.33333333333333	0
bin	-0.3	0
bin	-0.26666666666667	0
bin	-0.23333333333333	0
bin	-0.2	0
bin	-0.16666666666667	0
bin	-0.13333333333333	0
bin	-0.1	0
bin	-0.066666666666667	0
bin	-0.033333333333333	0
bin	0	1
bin	0.033333333333333	0
bin	0.066666666666667	0
bin	0.1	0
bin	0.13333333333333	0
bin	0.16666666666667	0
bin	0.2	0
bin	0.23333333333333	0
bin	0.26666666666667	0
bin	0.3	0
bin	0.33333333333333	0
bin	0.36666666666667	0
bin	0.4	0
bin	0.43333333333333	0
bin	0.46666666666667	0
bin	0.5	0
scalar SemiDecentralized.host[14].wlan[0].radio 	bitrate:min 	54000000
attr interpolationmode  sample-hold
attr title  "tx bitrate, min"
attr unit  bps
scalar SemiDecentralized.host[14].wlan[0].radio 	bitrate:max 	54000000
attr interpolationmode  sample-hold
attr title  "tx bitrate, max"
attr unit  bps
scalar SemiDecentralized.host[14].wlan[0].radio 	bitrate:timeavg 	54000000
attr interpolationmode  sample-hold
attr title  "tx bitrate, timeavg"
attr unit  bps
statistic SemiDecentralized.host[14].udpApp[0] 	endToEndDelay:histogram
field count 8138
field mean 0.0026924682263725
field stddev 0.021166736933796
field sum 21.911306426219
field sqrsum 3.7046217288294
field min 0.00059890441
field max 1.002935506912
attr interpolationmode  none
attr source  messageAge(rcvdPk)
attr title  "end-to-end delay, histogram"
attr unit  s
bin	-INF	0
bin	-0.0186536105615	0
bin	-0.0160866085653	0
bin	-0.0135196065691	0
bin	-0.0109526045729	0
bin	-0.0083856025767	0
bin	-0.0058186005805	0
bin	-0.0032515985843	0
bin	-0.0006845965881	6473
bin	0.0018824054081	1045
bin	0.0044494074043	118
bin	0.0070164094005	155
bin	0.0095834113967	63
bin	0.0121504133929	42
bin	0.0147174153891	53
bin	0.0172844173853	62
bin	0.0198514193815	24
bin	0.0224184213777	31
bin	0.0249854233739	15
bin	0.0275524253701	14
bin	0.0301194273663	18
bin	0.0326864293625	6
bin	0.0352534313587	1
bin	0.0378204333549	2
bin	0.0403874353511	2
bin	0.0429544373473	0
bin	0.0455214393435	0
bin	0.0480884413397	1
bin	0.0506554433359	1
bin	0.0532224453321	0
bin	0.0557894473283	1
bin	0.0583564493245	11
scalar SemiDecentralized.host[14].udp 	droppedPkBadChecksum:count 	0
attr interpolationmode  none
attr title  "packets dropped (checksum error), count"
scalar SemiDecentralized.host[14].udp 	droppedPkWrongPort:count 	0
attr interpolationmode  none
attr title  "packets dropped (wrong port), count"
scalar SemiDecentralized.host[14].udp 	passedUpPk:count 	8138
attr interpolationmode  none
attr title  "packets passed up, count"
scalar SemiDecentralized.host[14].udp 	rcvdPk:count 	8138
attr interpolationmode  none
attr source  rcvdPk
attr title  "packets received, count"
scalar SemiDecentralized.host[14].udp 	rcvdPk:sum(packetBytes) 	4231760
attr interpolationmode  none
attr source  rcvdPk
attr title  "packets received, sum(packetBytes)"
scalar SemiDecentralized.host[14].udp 	sentPk:count 	0
attr interpolationmode  none
attr source  sentPk
attr title  "packets sent, count"
scalar SemiDecentralized.host[14].udp 	sentPk:sum(packetBytes) 	0
attr interpolationmode  none
attr source  sentPk
attr title  "packets sent, sum(packetBytes)"
statistic SemiDecentralized.host[14].aodv 	NumSentAODVPackets
field count 1510
field mean 755.5
field stddev 436.04376691643
field sum 1140805
field sqrsum 1148790635
field min 1
field max 1510
statistic SemiDecentralized.host[14].aodv 	NumReceivedAODVPackets
field count 98
field mean 49.5
field stddev 28.434134416226
field sum 4851
field sqrsum 318549
field min 1
field max 98
scalar SemiDecentralized.host[14].aodv 	"Number of LinkBreaks" 	98
scalar SemiDecentralized.host[14].aodv 	RERRSentNow 	98
scalar SemiDecentralized.host[14].rsmgmnt 	"Number Received RouteResponses" 	268
scalar SemiDecentralized.host[14].rsmgmnt 	"Number Sent RREQs" 	268
scalar SemiDecentralized.host[15].wlan[0].mac 	"number of receiveunsigned d packets" 	440
scalar SemiDecentralized.host[15].wlan[0].mac 	"number of collisions" 	84762
scalar SemiDecentralized.host[15].wlan[0].mac 	"number of internal collisions" 	0
scalar SemiDecentralized.host[15].wlan[0].mac 	"number of retry for AC 0" 	5752
scalar SemiDecentralized.host[15].wlan[0].mac 	"sent and received bits" 	42940288
scalar SemiDecentralized.host[15].wlan[0].mac 	"sent packet within AC 0" 	9167
scalar SemiDecentralized.host[15].wlan[0].mac 	"sent in TXOP " 	0
scalar SemiDecentralized.host[15].wlan[0].mac 	"sentWithoutRetry AC 0" 	6585
scalar SemiDecentralized.host[15].wlan[0].mac 	"numGivenUp AC 0" 	133
scalar SemiDecentralized.host[15].wlan[0].mac 	"numDropped AC 0" 	0
scalar SemiDecentralized.host[15].wlan[0].radio 	lossRate:min 	0
attr interpolationmode  backward-sample-hold
attr title  "packet loss rate, min"
scalar SemiDecentralized.host[15].wlan[0].radio 	lossRate:max 	0.66
attr interpolationmode  backward-sample-hold
attr title  "packet loss rate, max"
scalar SemiDecentralized.host[15].wlan[0].radio 	lossRate:timeavg 	0.32738412956806
attr interpolationmode  backward-sample-hold
attr title  "packet loss rate, timeavg"
statistic SemiDecentralized.host[15].wlan[0].radio 	channelNo:histogram
field count 1
field mean 0
field stddev -nan
field sum 0
field sqrsum 0
field min 0
field max 0
attr interpolationmode  sample-hold
attr title  "channel no, histogram"
bin	-INF	0
bin	-0.5	0
bin	-0.46666666666667	0
bin	-0.43333333333333	0
bin	-0.4	0
bin	-0.36666666666667	0
bin	-0.33333333333333	0
bin	-0.3	0
bin	-0.26666666666667	0
bin	-0.23333333333333	0
bin	-0.2	0
bin	-0.16666666666667	0
bin	-0.13333333333333	0
bin	-0.1	0
bin	-0.066666666666667	0
bin	-0.033333333333333	0
bin	0	1
bin	0.033333333333333	0
bin	0.066666666666667	0
bin	0.1	0
bin	0.13333333333333	0
bin	0.16666666666667	0
bin	0.2	0
bin	0.23333333333333	0
bin	0.26666666666667	0
bin	0.3	0
bin	0.33333333333333	0
bin	0.36666666666667	0
bin	0.4	0
bin	0.43333333333333	0
bin	0.46666666666667	0
bin	0.5	0
scalar SemiDecentralized.host[15].wlan[0].radio 	bitrate:min 	54000000
attr interpolationmode  sample-hold
attr title  "tx bitrate, min"
attr unit  bps
scalar SemiDecentralized.host[15].wlan[0].radio 	bitrate:max 	54000000
attr interpolationmode  sample-hold
attr title  "tx bitrate, max"
attr unit  bps
scalar SemiDecentralized.host[15].wlan[0].radio 	bitrate:timeavg 	54000000
attr interpolationmode  sample-hold
attr title  "tx bitrate, timeavg"
attr unit  bps
scalar SemiDecentralized.host[15].udpApp[0] 	"packets sent" 	8871
scalar SemiDecentralized.host[15].udpApp[0] 	"packets received" 	0
statistic SemiDecentralized.host[15].udpApp[0] 	rcvdPkLifetime:stats
field count 0
field mean -nan
field stddev -nan
field sum 0
field sqrsum 0
field min -nan
field max -nan
attr interpolationmode  none
attr source  messageAge(rcvdPk)
attr title  "received packet lifetime, stats"
attr unit  s
scalar SemiDecentralized.host[15].udp 	droppedPkBadChecksum:count 	0
attr interpolationmode  none
attr title  "packets dropped (checksum error), count"
scalar SemiDecentralized.host[15].udp 	droppedPkWrongPort:count 	0
attr interpolationmode  none
attr title  "packets dropped (wrong port), count"
scalar SemiDecentralized.host[15].udp 	passedUpPk:count 	0
attr interpolationmode  none
attr title  "packets passed up, count"
scalar SemiDecentralized.host[15].udp 	rcvdPk:count 	0
attr interpolationmode  none
attr source  rcvdPk
attr title  "packets received, count"
scalar SemiDecentralized.host[15].udp 	rcvdPk:sum(packetBytes) 	0
attr interpolationmode  none
attr source  rcvdPk
attr title  "packets received, sum(packetBytes)"
scalar SemiDecentralized.host[15].udp 	sentPk:count 	8871
attr interpolationmode  none
attr source  sentPk
attr title  "packets sent, count"
scalar SemiDecentralized.host[15].udp 	sentPk:sum(packetBytes) 	4612920
attr interpolationmode  none
attr source  sentPk
attr title  "packets sent, sum(packetBytes)"
statistic SemiDecentralized.host[15].aodv 	NumSentAODVPackets
field count 421
field mean 211
field stddev 121.67648362221
field sum 88831
field sqrsum 24961511
field min 1
field max 421
statistic SemiDecentralized.host[15].aodv 	NumReceivedAODVPackets
field count 135
field mean 68
field stddev 39.115214431216
field sum 9180
field sqrsum 829260
field min 1
field max 135
scalar SemiDecentralized.host[15].aodv 	"Number of LinkBreaks" 	133
scalar SemiDecentralized.host[15].aodv 	RERRSentNow 	134
[...]
scalar SemiDecentralized.host[59].wlan[0].mac 	"sent in TXOP " 	0
scalar SemiDecentralized.host[59].wlan[0].mac 	"sentWithoutRetry AC 0" 	19540
scalar SemiDecentralized.host[59].wlan[0].mac 	"numGivenUp AC 0" 	101
scalar SemiDecentralized.host[59].wlan[0].mac 	"numDropped AC 0" 	0
scalar SemiDecentralized.host[59].wlan[0].radio 	lossRate:min 	0
attr interpolationmode  backward-sample-hold
attr title  "packet loss rate, min"
scalar SemiDecentralized.host[59].wlan[0].radio 	lossRate:max 	0.58
attr interpolationmode  backward-sample-hold
attr title  "packet loss rate, max"
scalar SemiDecentralized.host[59].wlan[0].radio 	lossRate:timeavg 	0.17874122144189
attr interpolationmode  backward-sample-hold
attr title  "packet loss rate, timeavg"
statistic SemiDecentralized.host[59].wlan[0].radio 	channelNo:histogram
field count 1
field mean 0
field stddev -nan
field sum 0
field sqrsum 0
field min 0
field max 0
attr interpolationmode  sample-hold
attr title  "channel no, histogram"
bin	-INF	0
bin	-0.5	0
bin	-0.46666666666667	0
bin	-0.43333333333333	0
bin	-0.4	0
bin	-0.36666666666667	0
bin	-0.33333333333333	0
bin	-0.3	0
bin	-0.26666666666667	0
bin	-0.23333333333333	0
bin	-0.2	0
bin	-0.16666666666667	0
bin	-0.13333333333333	0
bin	-0.1	0
bin	-0.066666666666667	0
bin	-0.033333333333333	0
bin	0	1
bin	0.033333333333333	0
bin	0.066666666666667	0
bin	0.1	0
bin	0.13333333333333	0
bin	0.16666666666667	0
bin	0.2	0
bin	0.23333333333333	0
bin	0.26666666666667	0
bin	0.3	0
bin	0.33333333333333	0
bin	0.36666666666667	0
bin	0.4	0
bin	0.43333333333333	0
bin	0.46666666666667	0
bin	0.5	0
scalar SemiDecentralized.host[59].wlan[0].radio 	bitrate:min 	54000000
attr interpolationmode  sample-hold
attr title  "tx bitrate, min"
attr unit  bps
scalar SemiDecentralized.host[59].wlan[0].radio 	bitrate:max 	54000000
attr interpolationmode  sample-hold
attr title  "tx bitrate, max"
attr unit  bps
scalar SemiDecentralized.host[59].wlan[0].radio 	bitrate:timeavg 	54000000
attr interpolationmode  sample-hold
attr title  "tx bitrate, timeavg"
attr unit  bps
scalar SemiDecentralized.host[59].udpApp[0] 	"packets sent" 	8875
scalar SemiDecentralized.host[59].udpApp[0] 	"packets received" 	0
statistic SemiDecentralized.host[59].udpApp[0] 	rcvdPkLifetime:stats
field count 0
field mean -nan
field stddev -nan
field sum 0
field sqrsum 0
field min -nan
field max -nan
attr interpolationmode  none
attr source  messageAge(rcvdPk)
attr title  "received packet lifetime, stats"
attr unit  s
scalar SemiDecentralized.host[59].udp 	droppedPkBadChecksum:count 	0
attr interpolationmode  none
attr title  "packets dropped (checksum error), count"
scalar SemiDecentralized.host[59].udp 	droppedPkWrongPort:count 	0
attr interpolationmode  none
attr title  "packets dropped (wrong port), count"
scalar SemiDecentralized.host[59].udp 	passedUpPk:count 	0
attr interpolationmode  none
attr title  "packets passed up, count"
scalar SemiDecentralized.host[59].udp 	rcvdPk:count 	0
attr interpolationmode  none
attr source  rcvdPk
attr title  "packets received, count"
scalar SemiDecentralized.host[59].udp 	rcvdPk:sum(packetBytes) 	0
attr interpolationmode  none
attr source  rcvdPk
attr title  "packets received, sum(packetBytes)"
scalar SemiDecentralized.host[59].udp 	sentPk:count 	8875
attr interpolationmode  none
attr source  sentPk
attr title  "packets sent, count"
scalar SemiDecentralized.host[59].udp 	sentPk:sum(packetBytes) 	4615000
attr interpolationmode  none
attr source  sentPk
attr title  "packets sent, sum(packetBytes)"
statistic SemiDecentralized.host[59].aodv 	NumSentAODVPackets
field count 642
field mean 321.5
field stddev 185.47371781468
field sum 206403
field sqrsum 88409285
field min 1
field max 642
statistic SemiDecentralized.host[59].aodv 	NumReceivedAODVPackets
field count 105
field mean 53
field stddev 30.454884665682
field sum 5565
field sqrsum 391405
field min 1
field max 105
scalar SemiDecentralized.host[59].aodv 	"Number of LinkBreaks" 	101
scalar SemiDecentralized.host[59].aodv 	RERRSentNow 	104
scalar SemiDecentralized.host[59].rsmgmnt 	"Number Received RouteResponses" 	309
scalar SemiDecentralized.host[59].rsmgmnt 	"Number Sent RREQs" 	309
scalar SemiDecentralized.host[60].wlan[0].mac 	"number of receiveunsigned d packets" 	447
scalar SemiDecentralized.host[60].wlan[0].mac 	"number of collisions" 	73897
scalar SemiDecentralized.host[60].wlan[0].mac 	"number of internal collisions" 	0
scalar SemiDecentralized.host[60].wlan[0].mac 	"number of retry for AC 0" 	214
scalar SemiDecentralized.host[60].wlan[0].mac 	"sent and received bits" 	2198544
scalar SemiDecentralized.host[60].wlan[0].mac 	"sent packet within AC 0" 	417
scalar SemiDecentralized.host[60].wlan[0].mac 	"sent in TXOP " 	0
scalar SemiDecentralized.host[60].wlan[0].mac 	"sentWithoutRetry AC 0" 	308
scalar SemiDecentralized.host[60].wlan[0].mac 	"numGivenUp AC 0" 	1
scalar SemiDecentralized.host[60].wlan[0].mac 	"numDropped AC 0" 	0
scalar SemiDecentralized.host[60].wlan[0].radio 	lossRate:min 	0.06
attr interpolationmode  backward-sample-hold
attr title  "packet loss rate, min"
scalar SemiDecentralized.host[60].wlan[0].radio 	lossRate:max 	0.7
attr interpolationmode  backward-sample-hold
attr title  "packet loss rate, max"
scalar SemiDecentralized.host[60].wlan[0].radio 	lossRate:timeavg 	0.32872337718414
attr interpolationmode  backward-sample-hold
attr title  "packet loss rate, timeavg"
statistic SemiDecentralized.host[60].wlan[0].radio 	channelNo:histogram
field count 1
field mean 0
field stddev -nan
field sum 0
field sqrsum 0
field min 0
field max 0
attr interpolationmode  sample-hold
attr title  "channel no, histogram"
bin	-INF	0
bin	-0.5	0
bin	-0.46666666666667	0
bin	-0.43333333333333	0
bin	-0.4	0
bin	-0.36666666666667	0
bin	-0.33333333333333	0
bin	-0.3	0
bin	-0.26666666666667	0
bin	-0.23333333333333	0
bin	-0.2	0
bin	-0.16666666666667	0
bin	-0.13333333333333	0
bin	-0.1	0
bin	-0.066666666666667	0
bin	-0.033333333333333	0
bin	0	1
bin	0.033333333333333	0
bin	0.066666666666667	0
bin	0.1	0
bin	0.13333333333333	0
bin	0.16666666666667	0
bin	0.2	0
bin	0.23333333333333	0
bin	0.26666666666667	0
bin	0.3	0
bin	0.33333333333333	0
bin	0.36666666666667	0
bin	0.4	0
bin	0.43333333333333	0
bin	0.46666666666667	0
bin	0.5	0
scalar SemiDecentralized.host[60].wlan[0].radio 	bitrate:min 	54000000
attr interpolationmode  sample-hold
attr title  "tx bitrate, min"
attr unit  bps
scalar SemiDecentralized.host[60].wlan[0].radio 	bitrate:max 	54000000
attr interpolationmode  sample-hold
attr title  "tx bitrate, max"
attr unit  bps
scalar SemiDecentralized.host[60].wlan[0].radio 	bitrate:timeavg 	54000000
attr interpolationmode  sample-hold
attr title  "tx bitrate, timeavg"
attr unit  bps
statistic SemiDecentralized.host[60].aodv 	NumSentAODVPackets
field count 31
field mean 16
field stddev 9.0921211313239
field sum 496
field sqrsum 10416
field min 1
field max 31
statistic SemiDecentralized.host[60].aodv 	NumReceivedAODVPackets
field count 1
field mean 1
field stddev -nan
field sum 1
field sqrsum 1
field min 1
field max 1
scalar SemiDecentralized.host[60].aodv 	"Number of LinkBreaks" 	1
scalar SemiDecentralized.host[60].aodv 	RERRSentNow 	1
scalar SemiDecentralized.host[60].rsmgmnt 	"Number Received RouteResponses" 	4
scalar SemiDecentralized.host[60].rsmgmnt 	"Number Sent RREQs" 	4
scalar SemiDecentralized.host[61].wlan[0].mac 	"number of receiveunsigned d packets" 	37387
scalar SemiDecentralized.host[61].wlan[0].mac 	"number of collisions" 	145277
scalar SemiDecentralized.host[61].wlan[0].mac 	"number of internal collisions" 	0
scalar SemiDecentralized.host[61].wlan[0].mac 	"number of retry for AC 0" 	9488
scalar SemiDecentralized.host[61].wlan[0].mac 	"sent and received bits" 	163550512
scalar SemiDecentralized.host[61].wlan[0].mac 	"sent packet within AC 0" 	35084
scalar SemiDecentralized.host[61].wlan[0].mac 	"sent in TXOP " 	0
scalar SemiDecentralized.host[61].wlan[0].mac 	"sentWithoutRetry AC 0" 	29988
scalar SemiDecentralized.host[61].wlan[0].mac 	"numGivenUp AC 0" 	63
scalar SemiDecentralized.host[61].wlan[0].mac 	"numDropped AC 0" 	0
scalar SemiDecentralized.host[61].wlan[0].radio 	lossRate:min 	0
attr interpolationmode  backward-sample-hold
attr title  "packet loss rate, min"
scalar SemiDecentralized.host[61].wlan[0].radio 	lossRate:max 	0.7
attr interpolationmode  backward-sample-hold
attr title  "packet loss rate, max"
scalar SemiDecentralized.host[61].wlan[0].radio 	lossRate:timeavg 	0.17973203902618
attr interpolationmode  backward-sample-hold
attr title  "packet loss rate, timeavg"
statistic SemiDecentralized.host[61].wlan[0].radio 	channelNo:histogram
field count 1
field mean 0
field stddev -nan
field sum 0
field sqrsum 0
field min 0
field max 0
attr interpolationmode  sample-hold
attr title  "channel no, histogram"
bin	-INF	0
bin	-0.5	0
bin	-0.46666666666667	0
bin	-0.43333333333333	0
bin	-0.4	0
bin	-0.36666666666667	0
bin	-0.33333333333333	0
bin	-0.3	0
bin	-0.26666666666667	0
bin	-0.23333333333333	0
bin	-0.2	0
bin	-0.16666666666667	0
bin	-0.13333333333333	0
bin	-0.1	0
bin	-0.066666666666667	0
bin	-0.033333333333333	0
bin	0	1
bin	0.033333333333333	0
bin	0.066666666666667	0
bin	0.1	0
bin	0.13333333333333	0
bin	0.16666666666667	0
bin	0.2	0
bin	0.23333333333333	0
bin	0.26666666666667	0
bin	0.3	0
bin	0.33333333333333	0
bin	0.36666666666667	0
bin	0.4	0
bin	0.43333333333333	0
bin	0.46666666666667	0
bin	0.5	0
scalar SemiDecentralized.host[61].wlan[0].radio 	bitrate:min 	54000000
attr interpolationmode  sample-hold
attr title  "tx bitrate, min"
attr unit  bps
scalar SemiDecentralized.host[61].wlan[0].radio 	bitrate:max 	54000000
attr interpolationmode  sample-hold
attr title  "tx bitrate, max"
attr unit  bps
scalar SemiDecentralized.host[61].wlan[0].radio 	bitrate:timeavg 	54000000
attr interpolationmode  sample-hold
attr title  "tx bitrate, timeavg"
attr unit  bps
statistic SemiDecentralized.host[61].aodv 	NumSentAODVPackets
field count 2279
field mean 1140
field stddev 658.03495347892
field sum 2598060
field sqrsum 3948185180
field min 1
field max 2279
statistic SemiDecentralized.host[61].aodv 	NumReceivedAODVPackets
field count 67
field mean 34
field stddev 19.485036994234
field sum 2278
field sqrsum 102510
field min 1
field max 67
scalar SemiDecentralized.host[61].aodv 	"Number of LinkBreaks" 	63
scalar SemiDecentralized.host[61].aodv 	RERRSentNow 	67
scalar SemiDecentralized.host[61].rsmgmnt 	"Number Received RouteResponses" 	246
scalar SemiDecentralized.host[61].rsmgmnt 	"Number Sent RREQs" 	246
scalar SemiDecentralized.host[62].wlan[0].mac 	"number of receiveunsigned d packets" 	3288
scalar SemiDecentralized.host[62].wlan[0].mac 	"number of collisions" 	78354
scalar SemiDecentralized.host[62].wlan[0].mac 	"number of internal collisions" 	0
scalar SemiDecentralized.host[62].wlan[0].mac 	"number of retry for AC 0" 	1387
scalar SemiDecentralized.host[62].wlan[0].mac 	"sent and received bits" 	14404720
scalar SemiDecentralized.host[62].wlan[0].mac 	"sent packet within AC 0" 	3041
scalar SemiDecentralized.host[62].wlan[0].mac 	"sent in TXOP " 	0
scalar SemiDecentralized.host[62].wlan[0].mac 	"sentWithoutRetry AC 0" 	2432
scalar SemiDecentralized.host[62].wlan[0].mac 	"numGivenUp AC 0" 	18
scalar SemiDecentralized.host[62].wlan[0].mac 	"numDropped AC 0" 	0
scalar SemiDecentralized.host[62].wlan[0].radio 	lossRate:min 	0
attr interpolationmode  backward-sample-hold
attr title  "packet loss rate, min"
scalar SemiDecentralized.host[62].wlan[0].radio 	lossRate:max 	0.62
attr interpolationmode  backward-sample-hold
attr title  "packet loss rate, max"
scalar SemiDecentralized.host[62].wlan[0].radio 	lossRate:timeavg 	0.20571742268817
attr interpolationmode  backward-sample-hold
attr title  "packet loss rate, timeavg"
statistic SemiDecentralized.host[62].wlan[0].radio 	channelNo:histogram
field count 1
field mean 0
field stddev -nan
field sum 0
field sqrsum 0
field min 0
field max 0
attr interpolationmode  sample-hold
attr title  "channel no, histogram"
bin	-INF	0
bin	-0.5	0
bin	-0.46666666666667	0
bin	-0.43333333333333	0
bin	-0.4	0
bin	-0.36666666666667	0
bin	-0.33333333333333	0
bin	-0.3	0
bin	-0.26666666666667	0
bin	-0.23333333333333	0
bin	-0.2	0
bin	-0.16666666666667	0
bin	-0.13333333333333	0
bin	-0.1	0
bin	-0.066666666666667	0
bin	-0.033333333333333	0
bin	0	1
bin	0.033333333333333	0
bin	0.066666666666667	0
bin	0.1	0
bin	0.13333333333333	0
bin	0.16666666666667	0
bin	0.2	0
bin	0.23333333333333	0
bin	0.26666666666667	0
bin	0.3	0
bin	0.33333333333333	0
bin	0.36666666666667	0
bin	0.4	0
bin	0.43333333333333	0
bin	0.46666666666667	0
bin	0.5	0
scalar SemiDecentralized.host[62].wlan[0].radio 	bitrate:min 	54000000
attr interpolationmode  sample-hold
attr title  "tx bitrate, min"
attr unit  bps
scalar SemiDecentralized.host[62].wlan[0].radio 	bitrate:max 	54000000
attr interpolationmode  sample-hold
attr title  "tx bitrate, max"
attr unit  bps
scalar SemiDecentralized.host[62].wlan[0].radio 	bitrate:timeavg 	54000000
attr interpolationmode  sample-hold
attr title  "tx bitrate, timeavg"
attr unit  bps
statistic SemiDecentralized.host[62].aodv 	NumSentAODVPackets
field count 201
field mean 101
field stddev 58.167860541712
field sum 20301
field sqrsum 2727101
field min 1
field max 201
statistic SemiDecentralized.host[62].aodv 	NumReceivedAODVPackets
field count 21
field mean 11
field stddev 6.2048368229954
field sum 231
field sqrsum 3311
field min 1
field max 21
scalar SemiDecentralized.host[62].aodv 	"Number of LinkBreaks" 	18
scalar SemiDecentralized.host[62].aodv 	RERRSentNow 	21
scalar SemiDecentralized.host[62].rsmgmnt 	"Number Received RouteResponses" 	63
scalar SemiDecentralized.host[62].rsmgmnt 	"Number Sent RREQs" 	63
scalar SemiDecentralized.host[63].wlan[0].mac 	"number of receiveunsigned d packets" 	21308
scalar SemiDecentralized.host[63].wlan[0].mac 	"number of collisions" 	201128
scalar SemiDecentralized.host[63].wlan[0].mac 	"number of internal collisions" 	0
scalar SemiDecentralized.host[63].wlan[0].mac 	"number of retry for AC 0" 	6497
scalar SemiDecentralized.host[63].wlan[0].mac 	"sent and received bits" 	97337904
scalar SemiDecentralized.host[63].wlan[0].mac 	"sent packet within AC 0" 	20856
scalar SemiDecentralized.host[63].wlan[0].mac 	"sent in TXOP " 	0
scalar SemiDecentralized.host[63].wlan[0].mac 	"sentWithoutRetry AC 0" 	17594
scalar SemiDecentralized.host[63].wlan[0].mac 	"numGivenUp AC 0" 	47
scalar SemiDecentralized.host[63].wlan[0].mac 	"numDropped AC 0" 	0
scalar SemiDecentralized.host[63].wlan[0].radio 	lossRate:min 	0
attr interpolationmode  backward-sample-hold
attr title  "packet loss rate, min"
scalar SemiDecentralized.host[63].wlan[0].radio 	lossRate:max 	0.66
attr interpolationmode  backward-sample-hold
attr title  "packet loss rate, max"
scalar SemiDecentralized.host[63].wlan[0].radio 	lossRate:timeavg 	0.19629505892893
attr interpolationmode  backward-sample-hold
attr title  "packet loss rate, timeavg"
statistic SemiDecentralized.host[63].wlan[0].radio 	channelNo:histogram
field count 1
field mean 0
field stddev -nan
field sum 0
field sqrsum 0
field min 0
field max 0
attr interpolationmode  sample-hold
attr title  "channel no, histogram"
bin	-INF	0
bin	-0.5	0
bin	-0.46666666666667	0
bin	-0.43333333333333	0
bin	-0.4	0
bin	-0.36666666666667	0
bin	-0.33333333333333	0
bin	-0.3	0
bin	-0.26666666666667	0
bin	-0.23333333333333	0
bin	-0.2	0
bin	-0.16666666666667	0
bin	-0.13333333333333	0
bin	-0.1	0
bin	-0.066666666666667	0
bin	-0.033333333333333	0
bin	0	1
bin	0.033333333333333	0
bin	0.066666666666667	0
bin	0.1	0
bin	0.13333333333333	0
bin	0.16666666666667	0
bin	0.2	0
bin	0.23333333333333	0
bin	0.26666666666667	0
bin	0.3	0
bin	0.33333333333333	0
bin	0.36666666666667	0
bin	0.4	0
bin	0.43333333333333	0
bin	0.46666666666667	0
bin	0.5	0
scalar SemiDecentralized.host[63].wlan[0].radio 	bitrate:min 	54000000
attr interpolationmode  sample-hold
attr title  "tx bitrate, min"
attr unit  bps
scalar SemiDecentralized.host[63].wlan[0].radio 	bitrate:max 	54000000
attr interpolationmode  sample-hold
attr title  "tx bitrate, max"
attr unit  bps
scalar SemiDecentralized.host[63].wlan[0].radio 	bitrate:timeavg 	54000000
attr interpolationmode  sample-hold
attr title  "tx bitrate, timeavg"
attr unit  bps
statistic SemiDecentralized.host[63].aodv 	NumSentAODVPackets
field count 529
field mean 265
field stddev 152.85341561989
field sum 140185
field sqrsum 49485305
field min 1
field max 529
statistic SemiDecentralized.host[63].aodv 	NumReceivedAODVPackets
field count 49
field mean 25
field stddev 14.288690166235
field sum 1225
field sqrsum 40425
field min 1
field max 49
scalar SemiDecentralized.host[63].aodv 	"Number of LinkBreaks" 	47
scalar SemiDecentralized.host[63].aodv 	RERRSentNow 	49
scalar SemiDecentralized.host[63].rsmgmnt 	"Number Received RouteResponses" 	131
scalar SemiDecentralized.host[63].rsmgmnt 	"Number Sent RREQs" 	131
scalar SemiDecentralized.host[64].wlan[0].mac 	"number of receiveunsigned d packets" 	0
scalar SemiDecentralized.host[64].wlan[0].mac 	"number of collisions" 	52250
scalar SemiDecentralized.host[64].wlan[0].mac 	"number of internal collisions" 	0
scalar SemiDecentralized.host[64].wlan[0].mac 	"number of retry for AC 0" 	0
scalar SemiDecentralized.host[64].wlan[0].mac 	"sent and received bits" 	254944
scalar SemiDecentralized.host[64].wlan[0].mac 	"sent packet within AC 0" 	0
scalar SemiDecentralized.host[64].wlan[0].mac 	"sent in TXOP " 	0
scalar SemiDecentralized.host[64].wlan[0].mac 	"sentWithoutRetry AC 0" 	0
scalar SemiDecentralized.host[64].wlan[0].mac 	"numGivenUp AC 0" 	0
scalar SemiDecentralized.host[64].wlan[0].mac 	"numDropped AC 0" 	0
scalar SemiDecentralized.host[64].wlan[0].radio 	lossRate:min 	0.02
attr interpolationmode  backward-sample-hold
attr title  "packet loss rate, min"
scalar SemiDecentralized.host[64].wlan[0].radio 	lossRate:max 	0.78
attr interpolationmode  backward-sample-hold
attr title  "packet loss rate, max"
scalar SemiDecentralized.host[64].wlan[0].radio 	lossRate:timeavg 	0.50132889633818
attr interpolationmode  backward-sample-hold
attr title  "packet loss rate, timeavg"
statistic SemiDecentralized.host[64].wlan[0].radio 	channelNo:histogram
field count 1
field mean 0
field stddev -nan
field sum 0
field sqrsum 0
field min 0
field max 0
attr interpolationmode  sample-hold
attr title  "channel no, histogram"
bin	-INF	0
bin	-0.5	0
bin	-0.46666666666667	0
bin	-0.43333333333333	0
bin	-0.4	0
bin	-0.36666666666667	0
bin	-0.33333333333333	0
bin	-0.3	0
bin	-0.26666666666667	0
bin	-0.23333333333333	0
bin	-0.2	0
bin	-0.16666666666667	0
bin	-0.13333333333333	0
bin	-0.1	0
bin	-0.066666666666667	0
bin	-0.033333333333333	0
bin	0	1
bin	0.033333333333333	0
bin	0.066666666666667	0
bin	0.1	0
bin	0.13333333333333	0
bin	0.16666666666667	0
bin	0.2	0
bin	0.23333333333333	0
bin	0.26666666666667	0
bin	0.3	0
bin	0.33333333333333	0
bin	0.36666666666667	0
bin	0.4	0
bin	0.43333333333333	0
bin	0.46666666666667	0
bin	0.5	0
scalar SemiDecentralized.host[64].wlan[0].radio 	bitrate:min 	54000000
attr interpolationmode  sample-hold
attr title  "tx bitrate, min"
attr unit  bps
scalar SemiDecentralized.host[64].wlan[0].radio 	bitrate:max 	54000000
attr interpolationmode  sample-hold
attr title  "tx bitrate, max"
attr unit  bps
scalar SemiDecentralized.host[64].wlan[0].radio 	bitrate:timeavg 	54000000
attr interpolationmode  sample-hold
attr title  "tx bitrate, timeavg"
attr unit  bps
statistic SemiDecentralized.host[64].aodv 	NumSentAODVPackets
field count 0
field mean -nan
field stddev -nan
field sum 0
field sqrsum 0
field min -nan
field max -nan
statistic SemiDecentralized.host[64].aodv 	NumReceivedAODVPackets
field count 0
field mean -nan
field stddev -nan
field sum 0
field sqrsum 0
field min -nan
field max -nan
scalar SemiDecentralized.host[64].aodv 	"Number of LinkBreaks" 	0
scalar SemiDecentralized.host[64].aodv 	RERRSentNow 	0
scalar SemiDecentralized.host[64].rsmgmnt 	"Number Received RouteResponses" 	0
scalar SemiDecentralized.host[64].rsmgmnt 	"Number Sent RREQs" 	0
