version 2
run General-18-20150713-18:45:54-59980
attr configname General
attr datetime 20150713-18:45:54
attr experiment General
attr inifile omnetpp.ini
attr iterationvars "$0=1, $1=1"
attr iterationvars2 "$0=1, $1=1, $repetition=0"
attr measurement "$0=1, $1=1"
attr network SemiDecentralized
attr processid 59980
attr repetition 0
attr replication #0
attr resultdir StaticThirtySourceDest
attr runnumber 18
attr seedset 18

scalar SemiDecentralized.host[0].wlan[0].mac 	"number of receiveunsigned d packets" 	5326
scalar SemiDecentralized.host[0].wlan[0].mac 	"number of collisions" 	627
scalar SemiDecentralized.host[0].wlan[0].mac 	"number of internal collisions" 	0
scalar SemiDecentralized.host[0].wlan[0].mac 	"number of retry for AC 0" 	82
scalar SemiDecentralized.host[0].wlan[0].mac 	"sent and received bits" 	20887264
scalar SemiDecentralized.host[0].wlan[0].mac 	"sent packet within AC 0" 	4447
scalar SemiDecentralized.host[0].wlan[0].mac 	"sent in TXOP " 	0
scalar SemiDecentralized.host[0].wlan[0].mac 	"sentWithoutRetry AC 0" 	4388
scalar SemiDecentralized.host[0].wlan[0].mac 	"numGivenUp AC 0" 	0
scalar SemiDecentralized.host[0].wlan[0].mac 	"numDropped AC 0" 	0
scalar SemiDecentralized.host[0].wlan[0].radio 	lossRate:min 	0
attr interpolationmode  backward-sample-hold
attr title  "packet loss rate, min"
scalar SemiDecentralized.host[0].wlan[0].radio 	lossRate:max 	0.1
attr interpolationmode  backward-sample-hold
attr title  "packet loss rate, max"
scalar SemiDecentralized.host[0].wlan[0].radio 	lossRate:timeavg 	0.010351413494275
attr interpolationmode  backward-sample-hold
attr title  "packet loss rate, timeavg"
statistic SemiDecentralized.host[0].wlan[0].radio 	channelNo:histogram
field count 1
field mean 0
field stddev -nan
field sum 0
field sqrsum 0
field min 0
field max 0
attr interpolationmode  sample-hold
attr title  "channel no, histogram"
bin	-INF	0
bin	-0.5	0
bin	-0.46666666666667	0
bin	-0.43333333333333	0
bin	-0.4	0
bin	-0.36666666666667	0
bin	-0.33333333333333	0
bin	-0.3	0
bin	-0.26666666666667	0
bin	-0.23333333333333	0
bin	-0.2	0
bin	-0.16666666666667	0
bin	-0.13333333333333	0
bin	-0.1	0
bin	-0.066666666666667	0
bin	-0.033333333333333	0
bin	0	1
bin	0.033333333333333	0
bin	0.066666666666667	0
bin	0.1	0
bin	0.13333333333333	0
bin	0.16666666666667	0
bin	0.2	0
bin	0.23333333333333	0
bin	0.26666666666667	0
bin	0.3	0
bin	0.33333333333333	0
bin	0.36666666666667	0
bin	0.4	0
bin	0.43333333333333	0
bin	0.46666666666667	0
bin	0.5	0
scalar SemiDecentralized.host[0].wlan[0].radio 	bitrate:min 	54000000
attr interpolationmode  sample-hold
attr title  "tx bitrate, min"
attr unit  bps
scalar SemiDecentralized.host[0].wlan[0].radio 	bitrate:max 	54000000
attr interpolationmode  sample-hold
attr title  "tx bitrate, max"
attr unit  bps
scalar SemiDecentralized.host[0].wlan[0].radio 	bitrate:timeavg 	54000000
attr interpolationmode  sample-hold
attr title  "tx bitrate, timeavg"
attr unit  bps
statistic SemiDecentralized.host[0].udpApp[0] 	endToEndDelay:histogram
field count 888
field mean 0.0020809829375608
field stddev 0.00037336139463271
field sum 1.847912848554
field sqrsum 0.0039691217823392
field min 0.001968416848
field max 0.005301416848
attr interpolationmode  none
attr source  messageAge(rcvdPk)
attr title  "end-to-end delay, histogram"
attr unit  s
bin	-INF	0
bin	0.0005480627115	0
bin	0.00073744326303333	0
bin	0.00092682381456667	0
bin	0.0011162043661	0
bin	0.0013055849176333	0
bin	0.0014949654691667	0
bin	0.0016843460207	0
bin	0.0018737265722333	794
bin	0.0020631071237667	0
bin	0.0022524876753	6
bin	0.0024418682268333	18
bin	0.0026312487783667	17
bin	0.0028206293299	21
bin	0.0030100098814333	1
bin	0.0031993904329667	13
bin	0.0033887709845	5
bin	0.0035781515360333	2
bin	0.0037675320875667	4
bin	0.0039569126391	3
bin	0.0041462931906333	2
bin	0.0043356737421667	0
bin	0.0045250542937	0
bin	0.0047144348452333	1
bin	0.0049038153967667	0
bin	0.0050931959483	0
bin	0.0052825764998333	1
bin	0.0054719570513667	0
bin	0.0056613376029	0
bin	0.0058507181544333	0
bin	0.0060400987059667	0
bin	0.0062294792575	0
scalar SemiDecentralized.host[0].udp 	droppedPkBadChecksum:count 	0
attr interpolationmode  none
attr title  "packets dropped (checksum error), count"
scalar SemiDecentralized.host[0].udp 	droppedPkWrongPort:count 	0
attr interpolationmode  none
attr title  "packets dropped (wrong port), count"
scalar SemiDecentralized.host[0].udp 	passedUpPk:count 	888
attr interpolationmode  none
attr title  "packets passed up, count"
scalar SemiDecentralized.host[0].udp 	rcvdPk:count 	888
attr interpolationmode  none
attr source  rcvdPk
attr title  "packets received, count"
scalar SemiDecentralized.host[0].udp 	rcvdPk:sum(packetBytes) 	461760
attr interpolationmode  none
attr source  rcvdPk
attr title  "packets received, sum(packetBytes)"
scalar SemiDecentralized.host[0].udp 	sentPk:count 	0
attr interpolationmode  none
attr source  sentPk
attr title  "packets sent, count"
scalar SemiDecentralized.host[0].udp 	sentPk:sum(packetBytes) 	0
attr interpolationmode  none
attr source  sentPk
attr title  "packets sent, sum(packetBytes)"
statistic SemiDecentralized.host[0].aodv 	NumSentAODVPackets
field count 5
field mean 3
field stddev 1.5811388300842
field sum 15
field sqrsum 55
field min 1
field max 5
statistic SemiDecentralized.host[0].aodv 	NumReceivedAODVPackets
field count 0
field mean -nan
field stddev -nan
field sum 0
field sqrsum 0
field min -nan
field max -nan
scalar SemiDecentralized.host[0].aodv 	"Number of LinkBreaks" 	0
scalar SemiDecentralized.host[0].aodv 	RERRSentNow 	0
scalar SemiDecentralized.host[0].rsmgmnt 	"Number Received RouteResponses" 	0
scalar SemiDecentralized.host[0].rsmgmnt 	"Number Sent RREQs" 	0
scalar SemiDecentralized.host[1].wlan[0].mac 	"number of receiveunsigned d packets" 	4
scalar SemiDecentralized.host[1].wlan[0].mac 	"number of collisions" 	413
scalar SemiDecentralized.host[1].wlan[0].mac 	"number of internal collisions" 	0
scalar SemiDecentralized.host[1].wlan[0].mac 	"number of retry for AC 0" 	27
scalar SemiDecentralized.host[1].wlan[0].mac 	"sent and received bits" 	4390720
scalar SemiDecentralized.host[1].wlan[0].mac 	"sent packet within AC 0" 	888
scalar SemiDecentralized.host[1].wlan[0].mac 	"sent in TXOP " 	0
scalar SemiDecentralized.host[1].wlan[0].mac 	"sentWithoutRetry AC 0" 	868
scalar SemiDecentralized.host[1].wlan[0].mac 	"numGivenUp AC 0" 	0
scalar SemiDecentralized.host[1].wlan[0].mac 	"numDropped AC 0" 	0
scalar SemiDecentralized.host[1].wlan[0].radio 	lossRate:min 	0
attr interpolationmode  backward-sample-hold
attr title  "packet loss rate, min"
scalar SemiDecentralized.host[1].wlan[0].radio 	lossRate:max 	0.1
attr interpolationmode  backward-sample-hold
attr title  "packet loss rate, max"
scalar SemiDecentralized.host[1].wlan[0].radio 	lossRate:timeavg 	0.010270439874442
attr interpolationmode  backward-sample-hold
attr title  "packet loss rate, timeavg"
statistic SemiDecentralized.host[1].wlan[0].radio 	channelNo:histogram
field count 1
field mean 0
field stddev -nan
field sum 0
field sqrsum 0
field min 0
field max 0
attr interpolationmode  sample-hold
attr title  "channel no, histogram"
bin	-INF	0
bin	-0.5	0
bin	-0.46666666666667	0
bin	-0.43333333333333	0
bin	-0.4	0
bin	-0.36666666666667	0
bin	-0.33333333333333	0
bin	-0.3	0
bin	-0.26666666666667	0
bin	-0.23333333333333	0
bin	-0.2	0
bin	-0.16666666666667	0
bin	-0.13333333333333	0
bin	-0.1	0
bin	-0.066666666666667	0
bin	-0.033333333333333	0
bin	0	1
bin	0.033333333333333	0
bin	0.066666666666667	0
bin	0.1	0
bin	0.13333333333333	0
bin	0.16666666666667	0
bin	0.2	0
bin	0.23333333333333	0
bin	0.26666666666667	0
bin	0.3	0
bin	0.33333333333333	0
bin	0.36666666666667	0
bin	0.4	0
bin	0.43333333333333	0
bin	0.46666666666667	0
bin	0.5	0
scalar SemiDecentralized.host[1].wlan[0].radio 	bitrate:min 	54000000
attr interpolationmode  sample-hold
attr title  "tx bitrate, min"
attr unit  bps
scalar SemiDecentralized.host[1].wlan[0].radio 	bitrate:max 	54000000
attr interpolationmode  sample-hold
attr title  "tx bitrate, max"
attr unit  bps
scalar SemiDecentralized.host[1].wlan[0].radio 	bitrate:timeavg 	54000000
attr interpolationmode  sample-hold
attr title  "tx bitrate, timeavg"
attr unit  bps
scalar SemiDecentralized.host[1].udpApp[0] 	"packets sent" 	888
scalar SemiDecentralized.host[1].udpApp[0] 	"packets received" 	0
statistic SemiDecentralized.host[1].udpApp[0] 	rcvdPkLifetime:stats
field count 0
field mean -nan
field stddev -nan
field sum 0
field sqrsum 0
field min -nan
field max -nan
attr interpolationmode  none
attr source  messageAge(rcvdPk)
attr title  "received packet lifetime, stats"
attr unit  s
scalar SemiDecentralized.host[1].udp 	droppedPkBadChecksum:count 	0
attr interpolationmode  none
attr title  "packets dropped (checksum error), count"
scalar SemiDecentralized.host[1].udp 	droppedPkWrongPort:count 	0
attr interpolationmode  none
attr title  "packets dropped (wrong port), count"
scalar SemiDecentralized.host[1].udp 	passedUpPk:count 	0
attr interpolationmode  none
attr title  "packets passed up, count"
scalar SemiDecentralized.host[1].udp 	rcvdPk:count 	0
attr interpolationmode  none
attr source  rcvdPk
attr title  "packets received, count"
scalar SemiDecentralized.host[1].udp 	rcvdPk:sum(packetBytes) 	0
attr interpolationmode  none
attr source  rcvdPk
attr title  "packets received, sum(packetBytes)"
scalar SemiDecentralized.host[1].udp 	sentPk:count 	888
attr interpolationmode  none
attr source  sentPk
attr title  "packets sent, count"
scalar SemiDecentralized.host[1].udp 	sentPk:sum(packetBytes) 	461760
attr interpolationmode  none
attr source  sentPk
attr title  "packets sent, sum(packetBytes)"
statistic SemiDecentralized.host[1].aodv 	NumSentAODVPackets
field count 1
field mean 1
field stddev -nan
field sum 1
field sqrsum 1
field min 1
field max 1
statistic SemiDecentralized.host[1].aodv 	NumReceivedAODVPackets
field count 1
field mean 1
field stddev -nan
field sum 1
field sqrsum 1
field min 1
field max 1
scalar SemiDecentralized.host[1].aodv 	"Number of LinkBreaks" 	0
scalar SemiDecentralized.host[1].aodv 	RERRSentNow 	0
scalar SemiDecentralized.host[1].rsmgmnt 	"Number Received RouteResponses" 	1
scalar SemiDecentralized.host[1].rsmgmnt 	"Number Sent RREQs" 	1
scalar SemiDecentralized.host[2].wlan[0].mac 	"number of receiveunsigned d packets" 	1789
scalar SemiDecentralized.host[2].wlan[0].mac 	"number of collisions" 	335
scalar SemiDecentralized.host[2].wlan[0].mac 	"number of internal collisions" 	0
scalar SemiDecentralized.host[2].wlan[0].mac 	"number of retry for AC 0" 	14
scalar SemiDecentralized.host[2].wlan[0].mac 	"sent and received bits" 	4415632
scalar SemiDecentralized.host[2].wlan[0].mac 	"sent packet within AC 0" 	904
scalar SemiDecentralized.host[2].wlan[0].mac 	"sent in TXOP " 	0
scalar SemiDecentralized.host[2].wlan[0].mac 	"sentWithoutRetry AC 0" 	892
scalar SemiDecentralized.host[2].wlan[0].mac 	"numGivenUp AC 0" 	0
scalar SemiDecentralized.host[2].wlan[0].mac 	"numDropped AC 0" 	0
scalar SemiDecentralized.host[2].wlan[0].radio 	lossRate:min 	0
attr interpolationmode  backward-sample-hold
attr title  "packet loss rate, min"
scalar SemiDecentralized.host[2].wlan[0].radio 	lossRate:max 	0.1
attr interpolationmode  backward-sample-hold
attr title  "packet loss rate, max"
scalar SemiDecentralized.host[2].wlan[0].radio 	lossRate:timeavg 	0.01003717948276
attr interpolationmode  backward-sample-hold
attr title  "packet loss rate, timeavg"
statistic SemiDecentralized.host[2].wlan[0].radio 	channelNo:histogram
field count 1
field mean 0
field stddev -nan
field sum 0
field sqrsum 0
field min 0
field max 0
attr interpolationmode  sample-hold
attr title  "channel no, histogram"
bin	-INF	0
bin	-0.5	0
bin	-0.46666666666667	0
bin	-0.43333333333333	0
bin	-0.4	0
bin	-0.36666666666667	0
bin	-0.33333333333333	0
bin	-0.3	0
bin	-0.26666666666667	0
bin	-0.23333333333333	0
bin	-0.2	0
bin	-0.16666666666667	0
bin	-0.13333333333333	0
bin	-0.1	0
bin	-0.066666666666667	0
bin	-0.033333333333333	0
bin	0	1
bin	0.033333333333333	0
bin	0.066666666666667	0
bin	0.1	0
bin	0.13333333333333	0
bin	0.16666666666667	0
bin	0.2	0
bin	0.23333333333333	0
bin	0.26666666666667	0
bin	0.3	0
bin	0.33333333333333	0
bin	0.36666666666667	0
bin	0.4	0
bin	0.43333333333333	0
bin	0.46666666666667	0
bin	0.5	0
scalar SemiDecentralized.host[2].wlan[0].radio 	bitrate:min 	54000000
attr interpolationmode  sample-hold
attr title  "tx bitrate, min"
attr unit  bps
scalar SemiDecentralized.host[2].wlan[0].radio 	bitrate:max 	54000000
attr interpolationmode  sample-hold
attr title  "tx bitrate, max"
attr unit  bps
scalar SemiDecentralized.host[2].wlan[0].radio 	bitrate:timeavg 	54000000
attr interpolationmode  sample-hold
attr title  "tx bitrate, timeavg"
attr unit  bps
statistic SemiDecentralized.host[2].udpApp[0] 	endToEndDelay:histogram
field count 889
field mean 0.0006568843905883
field stddev 0.00024481663950009
field sum 0.583970223233
field sqrsum 0.00043682337024491
field min 0.000599135785
field max 0.003482135785
attr interpolationmode  none
attr source  messageAge(rcvdPk)
attr title  "end-to-end delay, histogram"
attr unit  s
bin	-INF	0
bin	1.64654075e-05	0
bin	9.4154791166667e-05	0
bin	0.00017184417483333	0
bin	0.0002495335585	0
bin	0.00032722294216667	0
bin	0.00040491232583333	0
bin	0.0004826017095	0
bin	0.00056029109316667	828
bin	0.00063798047683333	0
bin	0.0007156698605	2
bin	0.00079335924416667	0
bin	0.00087104862783333	8
bin	0.0009487380115	1
bin	0.0010264273951667	1
bin	0.0011041167788333	3
bin	0.0011818061625	4
bin	0.0012594955461667	6
bin	0.0013371849298333	6
bin	0.0014148743135	7
bin	0.0014925636971667	7
bin	0.0015702530808333	6
bin	0.0016479424645	0
bin	0.0017256318481667	1
bin	0.0018033212318333	2
bin	0.0018810106155	2
bin	0.0019586999991667	2
bin	0.0020363893828333	0
bin	0.0021140787665	0
bin	0.0021917681501667	0
bin	0.0022694575338333	0
bin	0.0023471469175	3
scalar SemiDecentralized.host[2].udp 	droppedPkBadChecksum:count 	0
attr interpolationmode  none
attr title  "packets dropped (checksum error), count"
scalar SemiDecentralized.host[2].udp 	droppedPkWrongPort:count 	0
attr interpolationmode  none
attr title  "packets dropped (wrong port), count"
scalar SemiDecentralized.host[2].udp 	passedUpPk:count 	889
attr interpolationmode  none
attr title  "packets passed up, count"
scalar SemiDecentralized.host[2].udp 	rcvdPk:count 	889
attr interpolationmode  none
attr source  rcvdPk
attr title  "packets received, count"
scalar SemiDecentralized.host[2].udp 	rcvdPk:sum(packetBytes) 	462280
attr interpolationmode  none
attr source  rcvdPk
attr title  "packets received, sum(packetBytes)"
scalar SemiDecentralized.host[2].udp 	sentPk:count 	0
attr interpolationmode  none
attr source  sentPk
attr title  "packets sent, count"
scalar SemiDecentralized.host[2].udp 	sentPk:sum(packetBytes) 	0
attr interpolationmode  none
attr source  sentPk
attr title  "packets sent, sum(packetBytes)"
statistic SemiDecentralized.host[2].aodv 	NumSentAODVPackets
field count 1
field mean 1
field stddev -nan
field sum 1
field sqrsum 1
field min 1
field max 1
statistic SemiDecentralized.host[2].aodv 	NumReceivedAODVPackets
field count 0
field mean -nan
field stddev -nan
field sum 0
field sqrsum 0
field min -nan
field max -nan
scalar SemiDecentralized.host[2].aodv 	"Number of LinkBreaks" 	0
scalar SemiDecentralized.host[2].aodv 	RERRSentNow 	0
scalar SemiDecentralized.host[2].rsmgmnt 	"Number Received RouteResponses" 	0
scalar SemiDecentralized.host[2].rsmgmnt 	"Number Sent RREQs" 	0
scalar SemiDecentralized.host[3].wlan[0].mac 	"number of receiveunsigned d packets" 	3566
scalar SemiDecentralized.host[3].wlan[0].mac 	"number of collisions" 	1101
scalar SemiDecentralized.host[3].wlan[0].mac 	"number of internal collisions" 	0
scalar SemiDecentralized.host[3].wlan[0].mac 	"number of retry for AC 0" 	1779
scalar SemiDecentralized.host[3].wlan[0].mac 	"sent and received bits" 	20923696
scalar SemiDecentralized.host[3].wlan[0].mac 	"sent packet within AC 0" 	4437
scalar SemiDecentralized.host[3].wlan[0].mac 	"sent in TXOP " 	0
scalar SemiDecentralized.host[3].wlan[0].mac 	"sentWithoutRetry AC 0" 	3533
scalar SemiDecentralized.host[3].wlan[0].mac 	"numGivenUp AC 0" 	0
scalar SemiDecentralized.host[3].wlan[0].mac 	"numDropped AC 0" 	0
scalar SemiDecentralized.host[3].wlan[0].radio 	lossRate:min 	0
attr interpolationmode  backward-sample-hold
attr title  "packet loss rate, min"
scalar SemiDecentralized.host[3].wlan[0].radio 	lossRate:max 	0.12
attr interpolationmode  backward-sample-hold
attr title  "packet loss rate, max"
scalar SemiDecentralized.host[3].wlan[0].radio 	lossRate:timeavg 	0.014030018984109
attr interpolationmode  backward-sample-hold
attr title  "packet loss rate, timeavg"
statistic SemiDecentralized.host[3].wlan[0].radio 	channelNo:histogram
field count 1
field mean 0
field stddev -nan
field sum 0
field sqrsum 0
field min 0
field max 0
attr interpolationmode  sample-hold
attr title  "channel no, histogram"
bin	-INF	0
bin	-0.5	0
bin	-0.46666666666667	0
bin	-0.43333333333333	0
bin	-0.4	0
bin	-0.36666666666667	0
bin	-0.33333333333333	0
bin	-0.3	0
bin	-0.26666666666667	0
bin	-0.23333333333333	0
bin	-0.2	0
bin	-0.16666666666667	0
bin	-0.13333333333333	0
bin	-0.1	0
bin	-0.066666666666667	0
bin	-0.033333333333333	0
bin	0	1
bin	0.033333333333333	0
bin	0.066666666666667	0
bin	0.1	0
bin	0.13333333333333	0
bin	0.16666666666667	0
bin	0.2	0
bin	0.23333333333333	0
bin	0.26666666666667	0
bin	0.3	0
bin	0.33333333333333	0
bin	0.36666666666667	0
bin	0.4	0
bin	0.43333333333333	0
bin	0.46666666666667	0
bin	0.5	0
scalar SemiDecentralized.host[3].wlan[0].radio 	bitrate:min 	54000000
attr interpolationmode  sample-hold
attr title  "tx bitrate, min"
attr unit  bps
scalar SemiDecentralized.host[3].wlan[0].radio 	bitrate:max 	54000000
attr interpolationmode  sample-hold
attr title  "tx bitrate, max"
attr unit  bps
scalar SemiDecentralized.host[3].wlan[0].radio 	bitrate:timeavg 	54000000
attr interpolationmode  sample-hold
attr title  "tx bitrate, timeavg"
attr unit  bps
scalar SemiDecentralized.host[3].udpApp[0] 	"packets sent" 	889
scalar SemiDecentralized.host[3].udpApp[0] 	"packets received" 	0
statistic SemiDecentralized.host[3].udpApp[0] 	rcvdPkLifetime:stats
field count 0
field mean -nan
field stddev -nan
field sum 0
field sqrsum 0
field min -nan
field max -nan
attr interpolationmode  none
attr source  messageAge(rcvdPk)
attr title  "received packet lifetime, stats"
attr unit  s
scalar SemiDecentralized.host[3].udp 	droppedPkBadChecksum:count 	0
attr interpolationmode  none
attr title  "packets dropped (checksum error), count"
scalar SemiDecentralized.host[3].udp 	droppedPkWrongPort:count 	0
attr interpolationmode  none
attr title  "packets dropped (wrong port), count"
scalar SemiDecentralized.host[3].udp 	passedUpPk:count 	0
attr interpolationmode  none
attr title  "packets passed up, count"
scalar SemiDecentralized.host[3].udp 	rcvdPk:count 	0
attr interpolationmode  none
attr source  rcvdPk
attr title  "packets received, count"
scalar SemiDecentralized.host[3].udp 	rcvdPk:sum(packetBytes) 	0
attr interpolationmode  none
attr source  rcvdPk
attr title  "packets received, sum(packetBytes)"
scalar SemiDecentralized.host[3].udp 	sentPk:count 	889
attr interpolationmode  none
attr source  sentPk
attr title  "packets sent, count"
scalar SemiDecentralized.host[3].udp 	sentPk:sum(packetBytes) 	462280
attr interpolationmode  none
attr source  sentPk
attr title  "packets sent, sum(packetBytes)"
statistic SemiDecentralized.host[3].aodv 	NumSentAODVPackets
field count 5
field mean 3
field stddev 1.5811388300842
field sum 15
field sqrsum 55
field min 1
field max 5
statistic SemiDecentralized.host[3].aodv 	NumReceivedAODVPackets
field count 1
field mean 1
field stddev -nan
field sum 1
field sqrsum 1
field min 1
field max 1
scalar SemiDecentralized.host[3].aodv 	"Number of LinkBreaks" 	0
scalar SemiDecentralized.host[3].aodv 	RERRSentNow 	0
scalar SemiDecentralized.host[3].rsmgmnt 	"Number Received RouteResponses" 	1
scalar SemiDecentralized.host[3].rsmgmnt 	"Number Sent RREQs" 	1
scalar SemiDecentralized.host[4].wlan[0].mac 	"number of receiveunsigned d packets" 	888
scalar SemiDecentralized.host[4].wlan[0].mac 	"number of collisions" 	2300
scalar SemiDecentralized.host[4].wlan[0].mac 	"number of internal collisions" 	0
scalar SemiDecentralized.host[4].wlan[0].mac 	"number of retry for AC 0" 	0
scalar SemiDecentralized.host[4].wlan[0].mac 	"sent and received bits" 	261344
scalar SemiDecentralized.host[4].wlan[0].mac 	"sent packet within AC 0" 	7
scalar SemiDecentralized.host[4].wlan[0].mac 	"sent in TXOP " 	0
scalar SemiDecentralized.host[4].wlan[0].mac 	"sentWithoutRetry AC 0" 	7
scalar SemiDecentralized.host[4].wlan[0].mac 	"numGivenUp AC 0" 	0
scalar SemiDecentralized.host[4].wlan[0].mac 	"numDropped AC 0" 	0
scalar SemiDecentralized.host[4].wlan[0].radio 	lossRate:min 	0
attr interpolationmode  backward-sample-hold
attr title  "packet loss rate, min"
scalar SemiDecentralized.host[4].wlan[0].radio 	lossRate:max 	0.14
attr interpolationmode  backward-sample-hold
attr title  "packet loss rate, max"
scalar SemiDecentralized.host[4].wlan[0].radio 	lossRate:timeavg 	0.054714305923607
attr interpolationmode  backward-sample-hold
attr title  "packet loss rate, timeavg"
statistic SemiDecentralized.host[4].wlan[0].radio 	channelNo:histogram
field count 1
field mean 0
field stddev -nan
field sum 0
field sqrsum 0
field min 0
field max 0
attr interpolationmode  sample-hold
attr title  "channel no, histogram"
bin	-INF	0
bin	-0.5	0
bin	-0.46666666666667	0
bin	-0.43333333333333	0
bin	-0.4	0
bin	-0.36666666666667	0
bin	-0.33333333333333	0
bin	-0.3	0
bin	-0.26666666666667	0
bin	-0.23333333333333	0
bin	-0.2	0
bin	-0.16666666666667	0
bin	-0.13333333333333	0
bin	-0.1	0
bin	-0.066666666666667	0
bin	-0.033333333333333	0
bin	0	1
bin	0.033333333333333	0
bin	0.066666666666667	0
bin	0.1	0
bin	0.13333333333333	0
bin	0.16666666666667	0
bin	0.2	0
bin	0.23333333333333	0
bin	0.26666666666667	0
bin	0.3	0
bin	0.33333333333333	0
bin	0.36666666666667	0
bin	0.4	0
bin	0.43333333333333	0
bin	0.46666666666667	0
bin	0.5	0
scalar SemiDecentralized.host[4].wlan[0].radio 	bitrate:min 	54000000
attr interpolationmode  sample-hold
attr title  "tx bitrate, min"
attr unit  bps
scalar SemiDecentralized.host[4].wlan[0].radio 	bitrate:max 	54000000
attr interpolationmode  sample-hold
attr title  "tx bitrate, max"
attr unit  bps
scalar SemiDecentralized.host[4].wlan[0].radio 	bitrate:timeavg 	54000000
attr interpolationmode  sample-hold
attr title  "tx bitrate, timeavg"
attr unit  bps
statistic SemiDecentralized.host[4].udpApp[0] 	endToEndDelay:histogram
field count 888
field mean 0.0028544241452703
field stddev 0.0016597169878257
field sum 2.534728641
field sqrsum 0.0096785744800522
field min 0.000598464458
field max 0.021781464458
attr interpolationmode  none
attr source  messageAge(rcvdPk)
attr title  "end-to-end delay, histogram"
attr unit  s
bin	-INF	0
bin	-0.003512035542	0
bin	-0.0029639688753333	0
bin	-0.0024159022086667	0
bin	-0.001867835542	0
bin	-0.0013197688753333	0
bin	-0.00077170220866667	0
bin	-0.000223635542	0
bin	0.00032443112466667	1
bin	0.00087249779133333	196
bin	0.001420564458	78
bin	0.0019686311246667	147
bin	0.0025166977913333	167
bin	0.003064764458	86
bin	0.0036128311246667	57
bin	0.0041608977913333	65
bin	0.004708964458	33
bin	0.0052570311246667	20
bin	0.0058050977913333	8
bin	0.006353164458	5
bin	0.0069012311246667	3
bin	0.0074492977913333	13
bin	0.007997364458	1
bin	0.0085454311246667	3
bin	0.0090934977913333	1
bin	0.009641564458	2
bin	0.010189631124667	0
bin	0.010737697791333	1
bin	0.011285764458	0
bin	0.011833831124667	0
bin	0.012381897791333	0
bin	0.012929964458	1
scalar SemiDecentralized.host[4].udp 	droppedPkBadChecksum:count 	0
attr interpolationmode  none
attr title  "packets dropped (checksum error), count"
scalar SemiDecentralized.host[4].udp 	droppedPkWrongPort:count 	0
attr interpolationmode  none
attr title  "packets dropped (wrong port), count"
scalar SemiDecentralized.host[4].udp 	passedUpPk:count 	888
attr interpolationmode  none
attr title  "packets passed up, count"
scalar SemiDecentralized.host[4].udp 	rcvdPk:count 	888
attr interpolationmode  none
attr source  rcvdPk
attr title  "packets received, count"
scalar SemiDecentralized.host[4].udp 	rcvdPk:sum(packetBytes) 	461760
attr interpolationmode  none
attr source  rcvdPk
attr title  "packets received, sum(packetBytes)"
scalar SemiDecentralized.host[4].udp 	sentPk:count 	0
attr interpolationmode  none
attr source  sentPk
attr title  "packets sent, count"
scalar SemiDecentralized.host[4].udp 	sentPk:sum(packetBytes) 	0
attr interpolationmode  none
attr source  sentPk
attr title  "packets sent, sum(packetBytes)"
statistic SemiDecentralized.host[4].aodv 	NumSentAODVPackets
field count 0
field mean -nan
field stddev -nan
field sum 0
field sqrsum 0
field min -nan
field max -nan
statistic SemiDecentralized.host[4].aodv 	NumReceivedAODVPackets
field count 0
field mean -nan
field stddev -nan
field sum 0
field sqrsum 0
field min -nan
field max -nan
scalar SemiDecentralized.host[4].aodv 	"Number of LinkBreaks" 	0
scalar SemiDecentralized.host[4].aodv 	RERRSentNow 	0
scalar SemiDecentralized.host[4].rsmgmnt 	"Number Received RouteResponses" 	0
scalar SemiDecentralized.host[4].rsmgmnt 	"Number Sent RREQs" 	0
scalar SemiDecentralized.host[5].wlan[0].mac 	"number of receiveunsigned d packets" 	3
scalar SemiDecentralized.host[5].wlan[0].mac 	"number of collisions" 	383
scalar SemiDecentralized.host[5].wlan[0].mac 	"number of internal collisions" 	0
scalar SemiDecentralized.host[5].wlan[0].mac 	"number of retry for AC 0" 	1801
scalar SemiDecentralized.host[5].wlan[0].mac 	"sent and received bits" 	4391648
scalar SemiDecentralized.host[5].wlan[0].mac 	"sent packet within AC 0" 	888
scalar SemiDecentralized.host[5].wlan[0].mac 	"sent in TXOP " 	0
scalar SemiDecentralized.host[5].wlan[0].mac 	"sentWithoutRetry AC 0" 	11
scalar SemiDecentralized.host[5].wlan[0].mac 	"numGivenUp AC 0" 	0
scalar SemiDecentralized.host[5].wlan[0].mac 	"numDropped AC 0" 	0
scalar SemiDecentralized.host[5].wlan[0].radio 	lossRate:min 	0
attr interpolationmode  backward-sample-hold
attr title  "packet loss rate, min"
scalar SemiDecentralized.host[5].wlan[0].radio 	lossRate:max 	0.14
attr interpolationmode  backward-sample-hold
attr title  "packet loss rate, max"
scalar SemiDecentralized.host[5].wlan[0].radio 	lossRate:timeavg 	0.017894717596924
attr interpolationmode  backward-sample-hold
attr title  "packet loss rate, timeavg"
statistic SemiDecentralized.host[5].wlan[0].radio 	channelNo:histogram
field count 1
field mean 0
field stddev -nan
field sum 0
field sqrsum 0
field min 0
field max 0
attr interpolationmode  sample-hold
attr title  "channel no, histogram"
bin	-INF	0
bin	-0.5	0
bin	-0.46666666666667	0
bin	-0.43333333333333	0
bin	-0.4	0
bin	-0.36666666666667	0
bin	-0.33333333333333	0
bin	-0.3	0
bin	-0.26666666666667	0
bin	-0.23333333333333	0
bin	-0.2	0
bin	-0.16666666666667	0
bin	-0.13333333333333	0
bin	-0.1	0
bin	-0.066666666666667	0
bin	-0.033333333333333	0
bin	0	1
bin	0.033333333333333	0
bin	0.066666666666667	0
bin	0.1	0
bin	0.13333333333333	0
bin	0.16666666666667	0
bin	0.2	0
bin	0.23333333333333	0
bin	0.26666666666667	0
bin	0.3	0
bin	0.33333333333333	0
bin	0.36666666666667	0
bin	0.4	0
bin	0.43333333333333	0
bin	0.46666666666667	0
bin	0.5	0
scalar SemiDecentralized.host[5].wlan[0].radio 	bitrate:min 	54000000
attr interpolationmode  sample-hold
attr title  "tx bitrate, min"
attr unit  bps
scalar SemiDecentralized.host[5].wlan[0].radio 	bitrate:max 	54000000
attr interpolationmode  sample-hold
attr title  "tx bitrate, max"
attr unit  bps
scalar SemiDecentralized.host[5].wlan[0].radio 	bitrate:timeavg 	54000000
attr interpolationmode  sample-hold
attr title  "tx bitrate, timeavg"
attr unit  bps
scalar SemiDecentralized.host[5].udpApp[0] 	"packets sent" 	888
scalar SemiDecentralized.host[5].udpApp[0] 	"packets received" 	0
statistic SemiDecentralized.host[5].udpApp[0] 	rcvdPkLifetime:stats
field count 0
field mean -nan
field stddev -nan
field sum 0
field sqrsum 0
field min -nan
field max -nan
attr interpolationmode  none
attr source  messageAge(rcvdPk)
attr title  "received packet lifetime, stats"
attr unit  s
scalar SemiDecentralized.host[5].udp 	droppedPkBadChecksum:count 	0
attr interpolationmode  none
attr title  "packets dropped (checksum error), count"
scalar SemiDecentralized.host[5].udp 	droppedPkWrongPort:count 	0
attr interpolationmode  none
attr title  "packets dropped (wrong port), count"
scalar SemiDecentralized.host[5].udp 	passedUpPk:count 	0
attr interpolationmode  none
attr title  "packets passed up, count"
scalar SemiDecentralized.host[5].udp 	rcvdPk:count 	0
attr interpolationmode  none
attr source  rcvdPk
attr title  "packets received, count"
scalar SemiDecentralized.host[5].udp 	rcvdPk:sum(packetBytes) 	0
attr interpolationmode  none
attr source  rcvdPk
attr title  "packets received, sum(packetBytes)"
scalar SemiDecentralized.host[5].udp 	sentPk:count 	888
attr interpolationmode  none
attr source  sentPk
attr title  "packets sent, count"
scalar SemiDecentralized.host[5].udp 	sentPk:sum(packetBytes) 	461760
attr interpolationmode  none
attr source  sentPk
attr title  "packets sent, sum(packetBytes)"
statistic SemiDecentralized.host[5].aodv 	NumSentAODVPackets
field count 1
field mean 1
field stddev -nan
field sum 1
field sqrsum 1
field min 1
field max 1
statistic SemiDecentralized.host[5].aodv 	NumReceivedAODVPackets
field count 1
field mean 1
field stddev -nan
field sum 1
field sqrsum 1
field min 1
field max 1
scalar SemiDecentralized.host[5].aodv 	"Number of LinkBreaks" 	0
scalar SemiDecentralized.host[5].aodv 	RERRSentNow 	0
scalar SemiDecentralized.host[5].rsmgmnt 	"Number Received RouteResponses" 	1
scalar SemiDecentralized.host[5].rsmgmnt 	"Number Sent RREQs" 	1
scalar SemiDecentralized.host[6].wlan[0].mac 	"number of receiveunsigned d packets" 	3563
scalar SemiDecentralized.host[6].wlan[0].mac 	"number of collisions" 	888
scalar SemiDecentralized.host[6].wlan[0].mac 	"number of internal collisions" 	0
scalar SemiDecentralized.host[6].wlan[0].mac 	"number of retry for AC 0" 	48
scalar SemiDecentralized.host[6].wlan[0].mac 	"sent and received bits" 	12651104
scalar SemiDecentralized.host[6].wlan[0].mac 	"sent packet within AC 0" 	2672
scalar SemiDecentralized.host[6].wlan[0].mac 	"sent in TXOP " 	0
scalar SemiDecentralized.host[6].wlan[0].mac 	"sentWithoutRetry AC 0" 	2633
scalar SemiDecentralized.host[6].wlan[0].mac 	"numGivenUp AC 0" 	0
scalar SemiDecentralized.host[6].wlan[0].mac 	"numDropped AC 0" 	0
scalar SemiDecentralized.host[6].wlan[0].radio 	lossRate:min 	0
attr interpolationmode  backward-sample-hold
attr title  "packet loss rate, min"
scalar SemiDecentralized.host[6].wlan[0].radio 	lossRate:max 	0.14
attr interpolationmode  backward-sample-hold
attr title  "packet loss rate, max"
scalar SemiDecentralized.host[6].wlan[0].radio 	lossRate:timeavg 	0.010332180187219
attr interpolationmode  backward-sample-hold
attr title  "packet loss rate, timeavg"
statistic SemiDecentralized.host[6].wlan[0].radio 	channelNo:histogram
field count 1
field mean 0
field stddev -nan
field sum 0
field sqrsum 0
field min 0
field max 0
attr interpolationmode  sample-hold
attr title  "channel no, histogram"
bin	-INF	0
bin	-0.5	0
bin	-0.46666666666667	0
bin	-0.43333333333333	0
bin	-0.4	0
bin	-0.36666666666667	0
bin	-0.33333333333333	0
bin	-0.3	0
bin	-0.26666666666667	0
bin	-0.23333333333333	0
bin	-0.2	0
bin	-0.16666666666667	0
bin	-0.13333333333333	0
bin	-0.1	0
bin	-0.066666666666667	0
bin	-0.033333333333333	0
bin	0	1
bin	0.033333333333333	0
bin	0.066666666666667	0
bin	0.1	0
bin	0.13333333333333	0
bin	0.16666666666667	0
bin	0.2	0
bin	0.23333333333333	0
bin	0.26666666666667	0
bin	0.3	0
bin	0.33333333333333	0
bin	0.36666666666667	0
bin	0.4	0
bin	0.43333333333333	0
bin	0.46666666666667	0
bin	0.5	0
scalar SemiDecentralized.host[6].wlan[0].radio 	bitrate:min 	54000000
attr interpolationmode  sample-hold
attr title  "tx bitrate, min"
attr unit  bps
scalar SemiDecentralized.host[6].wlan[0].radio 	bitrate:max 	54000000
attr interpolationmode  sample-hold
attr title  "tx bitrate, max"
attr unit  bps
scalar SemiDecentralized.host[6].wlan[0].radio 	bitrate:timeavg 	54000000
attr interpolationmode  sample-hold
attr title  "tx bitrate, timeavg"
attr unit  bps
statistic SemiDecentralized.host[6].udpApp[0] 	endToEndDelay:histogram
field count 893
field mean 0.00065317772437179
field stddev 0.0002455529080728
field sum 0.58328770786401
field sqrsum 0.00043477477542805
field min 0.000598652731
field max 0.003167495811
attr interpolationmode  none
attr source  messageAge(rcvdPk)
attr title  "end-to-end delay, histogram"
attr unit  s
bin	-INF	0
bin	-0.000293347269	0
bin	-0.00017441393566667	0
bin	-5.5480602333333e-05	0
bin	6.3452731e-05	0
bin	0.00018238606433333	0
bin	0.00030131939766667	0
bin	0.000420252731	0
bin	0.00053918606433333	842
bin	0.00065811939766667	0
bin	0.000777052731	0
bin	0.00089598606433333	3
bin	0.0010149193976667	2
bin	0.001133852731	4
bin	0.0012527860643333	12
bin	0.0013717193976667	8
bin	0.001490652731	8
bin	0.0016095860643333	1
bin	0.0017285193976667	4
bin	0.001847452731	2
bin	0.0019663860643333	0
bin	0.0020853193976667	1
bin	0.002204252731	2
bin	0.0023231860643333	2
bin	0.0024421193976667	1
bin	0.002561052731	0
bin	0.0026799860643333	0
bin	0.0027989193976667	0
bin	0.002917852731	0
bin	0.0030367860643333	0
bin	0.0031557193976667	1
bin	0.003274652731	0
scalar SemiDecentralized.host[6].udp 	droppedPkBadChecksum:count 	0
attr interpolationmode  none
attr title  "packets dropped (checksum error), count"
scalar SemiDecentralized.host[6].udp 	droppedPkWrongPort:count 	0
attr interpolationmode  none
attr title  "packets dropped (wrong port), count"
scalar SemiDecentralized.host[6].udp 	passedUpPk:count 	893
attr interpolationmode  none
attr title  "packets passed up, count"
scalar SemiDecentralized.host[6].udp 	rcvdPk:count 	893
attr interpolationmode  none
attr source  rcvdPk
attr title  "packets received, count"
scalar SemiDecentralized.host[6].udp 	rcvdPk:sum(packetBytes) 	464360
attr interpolationmode  none
attr source  rcvdPk
attr title  "packets received, sum(packetBytes)"
scalar SemiDecentralized.host[6].udp 	sentPk:count 	0
attr interpolationmode  none
attr source  sentPk
attr title  "packets sent, count"
scalar SemiDecentralized.host[6].udp 	sentPk:sum(packetBytes) 	0
attr interpolationmode  none
attr source  sentPk
attr title  "packets sent, sum(packetBytes)"
statistic SemiDecentralized.host[6].aodv 	NumSentAODVPackets
field count 3
field mean 2
field stddev 1
field sum 6
field sqrsum 14
field min 1
field max 3
statistic SemiDecentralized.host[6].aodv 	NumReceivedAODVPackets
field count 0
field mean -nan
field stddev -nan
field sum 0
field sqrsum 0
field min -nan
field max -nan
scalar SemiDecentralized.host[6].aodv 	"Number of LinkBreaks" 	0
scalar SemiDecentralized.host[6].aodv 	RERRSentNow 	0
scalar SemiDecentralized.host[6].rsmgmnt 	"Number Received RouteResponses" 	0
scalar SemiDecentralized.host[6].rsmgmnt 	"Number Sent RREQs" 	0
scalar SemiDecentralized.host[7].wlan[0].mac 	"number of receiveunsigned d packets" 	2663
scalar SemiDecentralized.host[7].wlan[0].mac 	"number of collisions" 	738
scalar SemiDecentralized.host[7].wlan[0].mac 	"number of internal collisions" 	0
scalar SemiDecentralized.host[7].wlan[0].mac 	"number of retry for AC 0" 	88
scalar SemiDecentralized.host[7].wlan[0].mac 	"sent and received bits" 	16787552
scalar SemiDecentralized.host[7].wlan[0].mac 	"sent packet within AC 0" 	3558
scalar SemiDecentralized.host[7].wlan[0].mac 	"sent in TXOP " 	0
scalar SemiDecentralized.host[7].wlan[0].mac 	"sentWithoutRetry AC 0" 	3487
scalar SemiDecentralized.host[7].wlan[0].mac 	"numGivenUp AC 0" 	0
scalar SemiDecentralized.host[7].wlan[0].mac 	"numDropped AC 0" 	0
scalar SemiDecentralized.host[7].wlan[0].radio 	lossRate:min 	0
attr interpolationmode  backward-sample-hold
attr title  "packet loss rate, min"
scalar SemiDecentralized.host[7].wlan[0].radio 	lossRate:max 	0.12
attr interpolationmode  backward-sample-hold
attr title  "packet loss rate, max"
scalar SemiDecentralized.host[7].wlan[0].radio 	lossRate:timeavg 	0.0091104356747823
attr interpolationmode  backward-sample-hold
attr title  "packet loss rate, timeavg"
statistic SemiDecentralized.host[7].wlan[0].radio 	channelNo:histogram
field count 1
field mean 0
field stddev -nan
field sum 0
field sqrsum 0
field min 0
field max 0
attr interpolationmode  sample-hold
attr title  "channel no, histogram"
bin	-INF	0
bin	-0.5	0
bin	-0.46666666666667	0
bin	-0.43333333333333	0
bin	-0.4	0
bin	-0.36666666666667	0
bin	-0.33333333333333	0
bin	-0.3	0
bin	-0.26666666666667	0
bin	-0.23333333333333	0
bin	-0.2	0
bin	-0.16666666666667	0
bin	-0.13333333333333	0
bin	-0.1	0
bin	-0.066666666666667	0
bin	-0.033333333333333	0
bin	0	1
bin	0.033333333333333	0
bin	0.066666666666667	0
bin	0.1	0
bin	0.13333333333333	0
bin	0.16666666666667	0
bin	0.2	0
bin	0.23333333333333	0
bin	0.26666666666667	0
bin	0.3	0
bin	0.33333333333333	0
bin	0.36666666666667	0
bin	0.4	0
bin	0.43333333333333	0
bin	0.46666666666667	0
bin	0.5	0
scalar SemiDecentralized.host[7].wlan[0].radio 	bitrate:min 	54000000
attr interpolationmode  sample-hold
attr title  "tx bitrate, min"
attr unit  bps
scalar SemiDecentralized.host[7].wlan[0].radio 	bitrate:max 	54000000
attr interpolationmode  sample-hold
attr title  "tx bitrate, max"
attr unit  bps
scalar SemiDecentralized.host[7].wlan[0].radio 	bitrate:timeavg 	54000000
attr interpolationmode  sample-hold
attr title  "tx bitrate, timeavg"
attr unit  bps
scalar SemiDecentralized.host[7].udpApp[0] 	"packets sent" 	893
scalar SemiDecentralized.host[7].udpApp[0] 	"packets received" 	0
statistic SemiDecentralized.host[7].udpApp[0] 	rcvdPkLifetime:stats
field count 0
field mean -nan
field stddev -nan
field sum 0
field sqrsum 0
field min -nan
field max -nan
attr interpolationmode  none
attr source  messageAge(rcvdPk)
attr title  "received packet lifetime, stats"
attr unit  s
scalar SemiDecentralized.host[7].udp 	droppedPkBadChecksum:count 	0
attr interpolationmode  none
attr title  "packets dropped (checksum error), count"
scalar SemiDecentralized.host[7].udp 	droppedPkWrongPort:count 	0
attr interpolationmode  none
attr title  "packets dropped (wrong port), count"
scalar SemiDecentralized.host[7].udp 	passedUpPk:count 	0
attr interpolationmode  none
attr title  "packets passed up, count"
scalar SemiDecentralized.host[7].udp 	rcvdPk:count 	0
attr interpolationmode  none
attr source  rcvdPk
attr title  "packets received, count"
scalar SemiDecentralized.host[7].udp 	rcvdPk:sum(packetBytes) 	0
attr interpolationmode  none
attr source  rcvdPk
attr title  "packets received, sum(packetBytes)"
scalar SemiDecentralized.host[7].udp 	sentPk:count 	893
attr interpolationmode  none
attr source  sentPk
attr title  "packets sent, count"
scalar SemiDecentralized.host[7].udp 	sentPk:sum(packetBytes) 	464360
attr interpolationmode  none
attr source  sentPk
attr title  "packets sent, sum(packetBytes)"
statistic SemiDecentralized.host[7].aodv 	NumSentAODVPackets
field count 4
field mean 2.5
field stddev 1.2909944487358
field sum 10
field sqrsum 30
field min 1
field max 4
statistic SemiDecentralized.host[7].aodv 	NumReceivedAODVPackets
field count 1
field mean 1
field stddev -nan
field sum 1
field sqrsum 1
field min 1
field max 1
scalar SemiDecentralized.host[7].aodv 	"Number of LinkBreaks" 	0
scalar SemiDecentralized.host[7].aodv 	RERRSentNow 	0
scalar SemiDecentralized.host[7].rsmgmnt 	"Number Received RouteResponses" 	1
scalar SemiDecentralized.host[7].rsmgmnt 	"Number Sent RREQs" 	1
scalar SemiDecentralized.host[8].wlan[0].mac 	"number of receiveunsigned d packets" 	887
scalar SemiDecentralized.host[8].wlan[0].mac 	"number of collisions" 	2989
scalar SemiDecentralized.host[8].wlan[0].mac 	"number of internal collisions" 	0
scalar SemiDecentralized.host[8].wlan[0].mac 	"number of retry for AC 0" 	0
scalar SemiDecentralized.host[8].wlan[0].mac 	"sent and received bits" 	259856
scalar SemiDecentralized.host[8].wlan[0].mac 	"sent packet within AC 0" 	7
scalar SemiDecentralized.host[8].wlan[0].mac 	"sent in TXOP " 	0
scalar SemiDecentralized.host[8].wlan[0].mac 	"sentWithoutRetry AC 0" 	7
scalar SemiDecentralized.host[8].wlan[0].mac 	"numGivenUp AC 0" 	0
scalar SemiDecentralized.host[8].wlan[0].mac 	"numDropped AC 0" 	0
scalar SemiDecentralized.host[8].wlan[0].radio 	lossRate:min 	0
attr interpolationmode  backward-sample-hold
attr title  "packet loss rate, min"
scalar SemiDecentralized.host[8].wlan[0].radio 	lossRate:max 	0.14
attr interpolationmode  backward-sample-hold
attr title  "packet loss rate, max"
scalar SemiDecentralized.host[8].wlan[0].radio 	lossRate:timeavg 	0.03255436298543
attr interpolationmode  backward-sample-hold
attr title  "packet loss rate, timeavg"
statistic SemiDecentralized.host[8].wlan[0].radio 	channelNo:histogram
field count 1
field mean 0
field stddev -nan
field sum 0
field sqrsum 0
field min 0
field max 0
attr interpolationmode  sample-hold
attr title  "channel no, histogram"
bin	-INF	0
bin	-0.5	0
bin	-0.46666666666667	0
bin	-0.43333333333333	0
bin	-0.4	0
bin	-0.36666666666667	0
bin	-0.33333333333333	0
bin	-0.3	0
bin	-0.26666666666667	0
bin	-0.23333333333333	0
bin	-0.2	0
bin	-0.16666666666667	0
bin	-0.13333333333333	0
bin	-0.1	0
bin	-0.066666666666667	0
bin	-0.033333333333333	0
bin	0	1
bin	0.033333333333333	0
bin	0.066666666666667	0
bin	0.1	0
bin	0.13333333333333	0
bin	0.16666666666667	0
bin	0.2	0
bin	0.23333333333333	0
bin	0.26666666666667	0
bin	0.3	0
bin	0.33333333333333	0
bin	0.36666666666667	0
bin	0.4	0
bin	0.43333333333333	0
bin	0.46666666666667	0
bin	0.5	0
scalar SemiDecentralized.host[8].wlan[0].radio 	bitrate:min 	54000000
attr interpolationmode  sample-hold
attr title  "tx bitrate, min"
attr unit  bps
scalar SemiDecentralized.host[8].wlan[0].radio 	bitrate:max 	54000000
attr interpolationmode  sample-hold
attr title  "tx bitrate, max"
attr unit  bps
scalar SemiDecentralized.host[8].wlan[0].radio 	bitrate:timeavg 	54000000
attr interpolationmode  sample-hold
attr title  "tx bitrate, timeavg"
attr unit  bps
statistic SemiDecentralized.host[8].udpApp[0] 	endToEndDelay:histogram
field count 887
field mean 0.0020821468430597
field stddev 0.0004042631540841
field sum 1.846864249794
field sqrsum 0.0039902403934749
field min 0.001967995034
field max 0.006331356801
attr interpolationmode  none
attr source  messageAge(rcvdPk)
attr title  "end-to-end delay, histogram"
attr unit  s
bin	-INF	0
bin	-0.0002136858495	0
bin	7.7204934966667e-05	0
bin	0.00036809571943333	0
bin	0.0006589865039	0
bin	0.00094987728836667	0
bin	0.0012407680728333	0
bin	0.0015316588573	0
bin	0.0018225496417667	797
bin	0.0021134404262333	4
bin	0.0024043312107	19
bin	0.0026952219951667	36
bin	0.0029861127796333	6
bin	0.0032770035641	10
bin	0.0035678943485667	6
bin	0.0038587851330333	3
bin	0.0041496759175	1
bin	0.0044405667019667	2
bin	0.0047314574864333	1
bin	0.0050223482709	0
bin	0.0053132390553667	0
bin	0.0056041298398333	1
bin	0.0058950206243	0
bin	0.0061859114087667	1
bin	0.0064768021932333	0
bin	0.0067676929777	0
bin	0.0070585837621667	0
bin	0.0073494745466333	0
bin	0.0076403653311	0
bin	0.0079312561155667	0
bin	0.0082221469000333	0
bin	0.0085130376845	0
scalar SemiDecentralized.host[8].udp 	droppedPkBadChecksum:count 	0
attr interpolationmode  none
attr title  "packets dropped (checksum error), count"
scalar SemiDecentralized.host[8].udp 	droppedPkWrongPort:count 	0
attr interpolationmode  none
attr title  "packets dropped (wrong port), count"
scalar SemiDecentralized.host[8].udp 	passedUpPk:count 	887
attr interpolationmode  none
attr title  "packets passed up, count"
scalar SemiDecentralized.host[8].udp 	rcvdPk:count 	887
attr interpolationmode  none
attr source  rcvdPk
attr title  "packets received, count"
scalar SemiDecentralized.host[8].udp 	rcvdPk:sum(packetBytes) 	461240
attr interpolationmode  none
attr source  rcvdPk
attr title  "packets received, sum(packetBytes)"
scalar SemiDecentralized.host[8].udp 	sentPk:count 	0
attr interpolationmode  none
attr source  sentPk
attr title  "packets sent, count"
scalar SemiDecentralized.host[8].udp 	sentPk:sum(packetBytes) 	0
attr interpolationmode  none
attr source  sentPk
attr title  "packets sent, sum(packetBytes)"
statistic SemiDecentralized.host[8].aodv 	NumSentAODVPackets
field count 0
field mean -nan
field stddev -nan
field sum 0
field sqrsum 0
field min -nan
field max -nan
statistic SemiDecentralized.host[8].aodv 	NumReceivedAODVPackets
field count 0
field mean -nan
field stddev -nan
field sum 0
field sqrsum 0
field min -nan
field max -nan
scalar SemiDecentralized.host[8].aodv 	"Number of LinkBreaks" 	0
scalar SemiDecentralized.host[8].aodv 	RERRSentNow 	0
scalar SemiDecentralized.host[8].rsmgmnt 	"Number Received RouteResponses" 	0
scalar SemiDecentralized.host[8].rsmgmnt 	"Number Sent RREQs" 	0
scalar SemiDecentralized.host[9].wlan[0].mac 	"number of receiveunsigned d packets" 	4
scalar SemiDecentralized.host[9].wlan[0].mac 	"number of collisions" 	2225
scalar SemiDecentralized.host[9].wlan[0].mac 	"number of internal collisions" 	0
scalar SemiDecentralized.host[9].wlan[0].mac 	"number of retry for AC 0" 	29
scalar SemiDecentralized.host[9].wlan[0].mac 	"sent and received bits" 	4387056
scalar SemiDecentralized.host[9].wlan[0].mac 	"sent packet within AC 0" 	887
scalar SemiDecentralized.host[9].wlan[0].mac 	"sent in TXOP " 	0
scalar SemiDecentralized.host[9].wlan[0].mac 	"sentWithoutRetry AC 0" 	862
scalar SemiDecentralized.host[9].wlan[0].mac 	"numGivenUp AC 0" 	0
scalar SemiDecentralized.host[9].wlan[0].mac 	"numDropped AC 0" 	0
scalar SemiDecentralized.host[9].wlan[0].radio 	lossRate:min 	0
attr interpolationmode  backward-sample-hold
attr title  "packet loss rate, min"
scalar SemiDecentralized.host[9].wlan[0].radio 	lossRate:max 	0.18
attr interpolationmode  backward-sample-hold
attr title  "packet loss rate, max"
scalar SemiDecentralized.host[9].wlan[0].radio 	lossRate:timeavg 	0.061694420715602
attr interpolationmode  backward-sample-hold
attr title  "packet loss rate, timeavg"
statistic SemiDecentralized.host[9].wlan[0].radio 	channelNo:histogram
field count 1
field mean 0
field stddev -nan
field sum 0
field sqrsum 0
field min 0
field max 0
attr interpolationmode  sample-hold
attr title  "channel no, histogram"
bin	-INF	0
bin	-0.5	0
bin	-0.46666666666667	0
bin	-0.43333333333333	0
bin	-0.4	0
bin	-0.36666666666667	0
bin	-0.33333333333333	0
bin	-0.3	0
bin	-0.26666666666667	0
bin	-0.23333333333333	0
bin	-0.2	0
bin	-0.16666666666667	0
bin	-0.13333333333333	0
bin	-0.1	0
bin	-0.066666666666667	0
bin	-0.033333333333333	0
bin	0	1
bin	0.033333333333333	0
bin	0.066666666666667	0
bin	0.1	0
bin	0.13333333333333	0
bin	0.16666666666667	0
bin	0.2	0
bin	0.23333333333333	0
bin	0.26666666666667	0
bin	0.3	0
bin	0.33333333333333	0
bin	0.36666666666667	0
bin	0.4	0
bin	0.43333333333333	0
bin	0.46666666666667	0
bin	0.5	0
scalar SemiDecentralized.host[9].wlan[0].radio 	bitrate:min 	54000000
attr interpolationmode  sample-hold
attr title  "tx bitrate, min"
attr unit  bps
scalar SemiDecentralized.host[9].wlan[0].radio 	bitrate:max 	54000000
attr interpolationmode  sample-hold
attr title  "tx bitrate, max"
attr unit  bps
scalar SemiDecentralized.host[9].wlan[0].radio 	bitrate:timeavg 	54000000
attr interpolationmode  sample-hold
attr title  "tx bitrate, timeavg"
attr unit  bps
scalar SemiDecentralized.host[9].udpApp[0] 	"packets sent" 	887
scalar SemiDecentralized.host[9].udpApp[0] 	"packets received" 	0
statistic SemiDecentralized.host[9].udpApp[0] 	rcvdPkLifetime:stats
field count 0
field mean -nan
field stddev -nan
field sum 0
field sqrsum 0
field min -nan
field max -nan
attr interpolationmode  none
attr source  messageAge(rcvdPk)
attr title  "received packet lifetime, stats"
attr unit  s
scalar SemiDecentralized.host[9].udp 	droppedPkBadChecksum:count 	0
attr interpolationmode  none
attr title  "packets dropped (checksum error), count"
scalar SemiDecentralized.host[9].udp 	droppedPkWrongPort:count 	0
attr interpolationmode  none
attr title  "packets dropped (wrong port), count"
scalar SemiDecentralized.host[9].udp 	passedUpPk:count 	0
attr interpolationmode  none
attr title  "packets passed up, count"
scalar SemiDecentralized.host[9].udp 	rcvdPk:count 	0
attr interpolationmode  none
attr source  rcvdPk
attr title  "packets received, count"
scalar SemiDecentralized.host[9].udp 	rcvdPk:sum(packetBytes) 	0
attr interpolationmode  none
attr source  rcvdPk
attr title  "packets received, sum(packetBytes)"
scalar SemiDecentralized.host[9].udp 	sentPk:count 	887
attr interpolationmode  none
attr source  sentPk
attr title  "packets sent, count"
scalar SemiDecentralized.host[9].udp 	sentPk:sum(packetBytes) 	461240
attr interpolationmode  none
attr source  sentPk
attr title  "packets sent, sum(packetBytes)"
statistic SemiDecentralized.host[9].aodv 	NumSentAODVPackets
field count 1
field mean 1
field stddev -nan
field sum 1
field sqrsum 1
field min 1
field max 1
statistic SemiDecentralized.host[9].aodv 	NumReceivedAODVPackets
field count 1
field mean 1
field stddev -nan
field sum 1
field sqrsum 1
field min 1
field max 1
scalar SemiDecentralized.host[9].aodv 	"Number of LinkBreaks" 	0
scalar SemiDecentralized.host[9].aodv 	RERRSentNow 	0
scalar SemiDecentralized.host[9].rsmgmnt 	"Number Received RouteResponses" 	1
scalar SemiDecentralized.host[9].rsmgmnt 	"Number Sent RREQs" 	1
scalar SemiDecentralized.host[10].wlan[0].mac 	"number of receiveunsigned d packets" 	1780
scalar SemiDecentralized.host[10].wlan[0].mac 	"number of collisions" 	676
scalar SemiDecentralized.host[10].wlan[0].mac 	"number of internal collisions" 	0
scalar SemiDecentralized.host[10].wlan[0].mac 	"number of retry for AC 0" 	22
scalar SemiDecentralized.host[10].wlan[0].mac 	"sent and received bits" 	4387440
scalar SemiDecentralized.host[10].wlan[0].mac 	"sent packet within AC 0" 	892
scalar SemiDecentralized.host[10].wlan[0].mac 	"sent in TXOP " 	0
scalar SemiDecentralized.host[10].wlan[0].mac 	"sentWithoutRetry AC 0" 	874
scalar SemiDecentralized.host[10].wlan[0].mac 	"numGivenUp AC 0" 	0
scalar SemiDecentralized.host[10].wlan[0].mac 	"numDropped AC 0" 	0
scalar SemiDecentralized.host[10].wlan[0].radio 	lossRate:min 	0
attr interpolationmode  backward-sample-hold
attr title  "packet loss rate, min"
scalar SemiDecentralized.host[10].wlan[0].radio 	lossRate:max 	0.12
attr interpolationmode  backward-sample-hold
attr title  "packet loss rate, max"
scalar SemiDecentralized.host[10].wlan[0].radio 	lossRate:timeavg 	0.011586989509089
attr interpolationmode  backward-sample-hold
attr title  "packet loss rate, timeavg"
statistic SemiDecentralized.host[10].wlan[0].radio 	channelNo:histogram
field count 1
field mean 0
field stddev -nan
field sum 0
field sqrsum 0
field min 0
field max 0
attr interpolationmode  sample-hold
attr title  "channel no, histogram"
bin	-INF	0
bin	-0.5	0
bin	-0.46666666666667	0
bin	-0.43333333333333	0
bin	-0.4	0
bin	-0.36666666666667	0
bin	-0.33333333333333	0
bin	-0.3	0
bin	-0.26666666666667	0
bin	-0.23333333333333	0
bin	-0.2	0
bin	-0.16666666666667	0
bin	-0.13333333333333	0
bin	-0.1	0
bin	-0.066666666666667	0
bin	-0.033333333333333	0
bin	0	1
bin	0.033333333333333	0
bin	0.066666666666667	0
bin	0.1	0
bin	0.13333333333333	0
bin	0.16666666666667	0
bin	0.2	0
bin	0.23333333333333	0
bin	0.26666666666667	0
bin	0.3	0
bin	0.33333333333333	0
bin	0.36666666666667	0
bin	0.4	0
bin	0.43333333333333	0
bin	0.46666666666667	0
bin	0.5	0
scalar SemiDecentralized.host[10].wlan[0].radio 	bitrate:min 	54000000
attr interpolationmode  sample-hold
attr title  "tx bitrate, min"
attr unit  bps
scalar SemiDecentralized.host[10].wlan[0].radio 	bitrate:max 	54000000
attr interpolationmode  sample-hold
attr title  "tx bitrate, max"
attr unit  bps
scalar SemiDecentralized.host[10].wlan[0].radio 	bitrate:timeavg 	54000000
attr interpolationmode  sample-hold
attr title  "tx bitrate, timeavg"
attr unit  bps
statistic SemiDecentralized.host[10].udpApp[0] 	endToEndDelay:histogram
field count 887
field mean 0.0020839665878771
field stddev 0.00039246215410672
field sum 1.848478363447
field sqrsum 0.0039886346644091
field min 0.001968430596
field max 0.005687659858
attr interpolationmode  none
attr source  messageAge(rcvdPk)
attr title  "end-to-end delay, histogram"
attr unit  s
bin	-INF	0
bin	0.00033177639	0
bin	0.0005499969508	0
bin	0.0007682175116	0
bin	0.0009864380724	0
bin	0.0012046586332	0
bin	0.001422879194	0
bin	0.0016410997548	0
bin	0.0018593203156	793
bin	0.0020775408764	3
bin	0.0022957614372	3
bin	0.002513981998	30
bin	0.0027322025588	22
bin	0.0029504231196	8
bin	0.0031686436804	6
bin	0.0033868642412	6
bin	0.003605084802	5
bin	0.0038233053628	4
bin	0.0040415259236	2
bin	0.0042597464844	1
bin	0.0044779670452	1
bin	0.004696187606	1
bin	0.0049144081668	0
bin	0.0051326287276	1
bin	0.0053508492884	0
bin	0.0055690698492	1
bin	0.00578729041	0
bin	0.0060055109708	0
bin	0.0062237315316	0
bin	0.0064419520924	0
bin	0.0066601726532	0
bin	0.006878393214	0
scalar SemiDecentralized.host[10].udp 	droppedPkBadChecksum:count 	0
attr interpolationmode  none
attr title  "packets dropped (checksum error), count"
scalar SemiDecentralized.host[10].udp 	droppedPkWrongPort:count 	0
attr interpolationmode  none
attr title  "packets dropped (wrong port), count"
scalar SemiDecentralized.host[10].udp 	passedUpPk:count 	887
attr interpolationmode  none
attr title  "packets passed up, count"
scalar SemiDecentralized.host[10].udp 	rcvdPk:count 	887
attr interpolationmode  none
attr source  rcvdPk
attr title  "packets received, count"
scalar SemiDecentralized.host[10].udp 	rcvdPk:sum(packetBytes) 	461240
attr interpolationmode  none
attr source  rcvdPk
attr title  "packets received, sum(packetBytes)"
scalar SemiDecentralized.host[10].udp 	sentPk:count 	0
attr interpolationmode  none
attr source  sentPk
attr title  "packets sent, count"
scalar SemiDecentralized.host[10].udp 	sentPk:sum(packetBytes) 	0
attr interpolationmode  none
attr source  sentPk
attr title  "packets sent, sum(packetBytes)"
statistic SemiDecentralized.host[10].aodv 	NumSentAODVPackets
field count 1
field mean 1
field stddev -nan
field sum 1
field sqrsum 1
field min 1
field max 1
statistic SemiDecentralized.host[10].aodv 	NumReceivedAODVPackets
field count 0
field mean -nan
field stddev -nan
field sum 0
field sqrsum 0
field min -nan
field max -nan
scalar SemiDecentralized.host[10].aodv 	"Number of LinkBreaks" 	0
scalar SemiDecentralized.host[10].aodv 	RERRSentNow 	0
scalar SemiDecentralized.host[10].rsmgmnt 	"Number Received RouteResponses" 	0
scalar SemiDecentralized.host[10].rsmgmnt 	"Number Sent RREQs" 	0
scalar SemiDecentralized.host[11].wlan[0].mac 	"number of receiveunsigned d packets" 	4
scalar SemiDecentralized.host[11].wlan[0].mac 	"number of collisions" 	274
scalar SemiDecentralized.host[11].wlan[0].mac 	"number of internal collisions" 	0
scalar SemiDecentralized.host[11].wlan[0].mac 	"number of retry for AC 0" 	32
scalar SemiDecentralized.host[11].wlan[0].mac 	"sent and received bits" 	4388048
scalar SemiDecentralized.host[11].wlan[0].mac 	"sent packet within AC 0" 	887
scalar SemiDecentralized.host[11].wlan[0].mac 	"sent in TXOP " 	0
scalar SemiDecentralized.host[11].wlan[0].mac 	"sentWithoutRetry AC 0" 	859
scalar SemiDecentralized.host[11].wlan[0].mac 	"numGivenUp AC 0" 	0
scalar SemiDecentralized.host[11].wlan[0].mac 	"numDropped AC 0" 	0
scalar SemiDecentralized.host[11].wlan[0].radio 	lossRate:min 	0
attr interpolationmode  backward-sample-hold
attr title  "packet loss rate, min"
scalar SemiDecentralized.host[11].wlan[0].radio 	lossRate:max 	0.1
attr interpolationmode  backward-sample-hold
attr title  "packet loss rate, max"
scalar SemiDecentralized.host[11].wlan[0].radio 	lossRate:timeavg 	0.010770447276351
attr interpolationmode  backward-sample-hold
attr title  "packet loss rate, timeavg"
statistic SemiDecentralized.host[11].wlan[0].radio 	channelNo:histogram
field count 1
field mean 0
field stddev -nan
field sum 0
field sqrsum 0
field min 0
field max 0
attr interpolationmode  sample-hold
attr title  "channel no, histogram"
bin	-INF	0
bin	-0.5	0
bin	-0.46666666666667	0
bin	-0.43333333333333	0
bin	-0.4	0
bin	-0.36666666666667	0
bin	-0.33333333333333	0
bin	-0.3	0
bin	-0.26666666666667	0
bin	-0.23333333333333	0
bin	-0.2	0
bin	-0.16666666666667	0
bin	-0.13333333333333	0
bin	-0.1	0
bin	-0.066666666666667	0
bin	-0.033333333333333	0
bin	0	1
bin	0.033333333333333	0
bin	0.066666666666667	0
bin	0.1	0
bin	0.13333333333333	0
bin	0.16666666666667	0
bin	0.2	0
bin	0.23333333333333	0
bin	0.26666666666667	0
bin	0.3	0
bin	0.33333333333333	0
bin	0.36666666666667	0
bin	0.4	0
bin	0.43333333333333	0
bin	0.46666666666667	0
bin	0.5	0
scalar SemiDecentralized.host[11].wlan[0].radio 	bitrate:min 	54000000
attr interpolationmode  sample-hold
attr title  "tx bitrate, min"
attr unit  bps
scalar SemiDecentralized.host[11].wlan[0].radio 	bitrate:max 	54000000
attr interpolationmode  sample-hold
attr title  "tx bitrate, max"
attr unit  bps
scalar SemiDecentralized.host[11].wlan[0].radio 	bitrate:timeavg 	54000000
attr interpolationmode  sample-hold
attr title  "tx bitrate, timeavg"
attr unit  bps
scalar SemiDecentralized.host[11].udpApp[0] 	"packets sent" 	887
scalar SemiDecentralized.host[11].udpApp[0] 	"packets received" 	0
statistic SemiDecentralized.host[11].udpApp[0] 	rcvdPkLifetime:stats
field count 0
field mean -nan
field stddev -nan
field sum 0
field sqrsum 0
field min -nan
field max -nan
attr interpolationmode  none
attr source  messageAge(rcvdPk)
attr title  "received packet lifetime, stats"
attr unit  s
scalar SemiDecentralized.host[11].udp 	droppedPkBadChecksum:count 	0
attr interpolationmode  none
attr title  "packets dropped (checksum error), count"
scalar SemiDecentralized.host[11].udp 	droppedPkWrongPort:count 	0
attr interpolationmode  none
attr title  "packets dropped (wrong port), count"
scalar SemiDecentralized.host[11].udp 	passedUpPk:count 	0
attr interpolationmode  none
attr title  "packets passed up, count"
scalar SemiDecentralized.host[11].udp 	rcvdPk:count 	0
attr interpolationmode  none
attr source  rcvdPk
attr title  "packets received, count"
scalar SemiDecentralized.host[11].udp 	rcvdPk:sum(packetBytes) 	0
attr interpolationmode  none
attr source  rcvdPk
attr title  "packets received, sum(packetBytes)"
scalar SemiDecentralized.host[11].udp 	sentPk:count 	887
attr interpolationmode  none
attr source  sentPk
attr title  "packets sent, count"
scalar SemiDecentralized.host[11].udp 	sentPk:sum(packetBytes) 	461240
attr interpolationmode  none
attr source  sentPk
attr title  "packets sent, sum(packetBytes)"
statistic SemiDecentralized.host[11].aodv 	NumSentAODVPackets
field count 1
field mean 1
field stddev -nan
field sum 1
field sqrsum 1
field min 1
field max 1
statistic SemiDecentralized.host[11].aodv 	NumReceivedAODVPackets
field count 1
field mean 1
field stddev -nan
field sum 1
field sqrsum 1
field min 1
field max 1
scalar SemiDecentralized.host[11].aodv 	"Number of LinkBreaks" 	0
scalar SemiDecentralized.host[11].aodv 	RERRSentNow 	0
scalar SemiDecentralized.host[11].rsmgmnt 	"Number Received RouteResponses" 	1
scalar SemiDecentralized.host[11].rsmgmnt 	"Number Sent RREQs" 	1
scalar SemiDecentralized.host[12].wlan[0].mac 	"number of receiveunsigned d packets" 	2667
scalar SemiDecentralized.host[12].wlan[0].mac 	"number of collisions" 	282
scalar SemiDecentralized.host[12].wlan[0].mac 	"number of internal collisions" 	0
scalar SemiDecentralized.host[12].wlan[0].mac 	"number of retry for AC 0" 	52
scalar SemiDecentralized.host[12].wlan[0].mac 	"sent and received bits" 	8525952
scalar SemiDecentralized.host[12].wlan[0].mac 	"sent packet within AC 0" 	1785
scalar SemiDecentralized.host[12].wlan[0].mac 	"sent in TXOP " 	0
scalar SemiDecentralized.host[12].wlan[0].mac 	"sentWithoutRetry AC 0" 	1742
scalar SemiDecentralized.host[12].wlan[0].mac 	"numGivenUp AC 0" 	0
scalar SemiDecentralized.host[12].wlan[0].mac 	"numDropped AC 0" 	0
scalar SemiDecentralized.host[12].wlan[0].radio 	lossRate:min 	0
attr interpolationmode  backward-sample-hold
attr title  "packet loss rate, min"
scalar SemiDecentralized.host[12].wlan[0].radio 	lossRate:max 	0.08
attr interpolationmode  backward-sample-hold
attr title  "packet loss rate, max"
scalar SemiDecentralized.host[12].wlan[0].radio 	lossRate:timeavg 	0.0081809733702861
attr interpolationmode  backward-sample-hold
attr title  "packet loss rate, timeavg"
statistic SemiDecentralized.host[12].wlan[0].radio 	channelNo:histogram
field count 1
field mean 0
field stddev -nan
field sum 0
field sqrsum 0
field min 0
field max 0
attr interpolationmode  sample-hold
attr title  "channel no, histogram"
bin	-INF	0
bin	-0.5	0
bin	-0.46666666666667	0
bin	-0.43333333333333	0
bin	-0.4	0
bin	-0.36666666666667	0
bin	-0.33333333333333	0
bin	-0.3	0
bin	-0.26666666666667	0
bin	-0.23333333333333	0
bin	-0.2	0
bin	-0.16666666666667	0
bin	-0.13333333333333	0
bin	-0.1	0
bin	-0.066666666666667	0
bin	-0.033333333333333	0
bin	0	1
bin	0.033333333333333	0
bin	0.066666666666667	0
bin	0.1	0
bin	0.13333333333333	0
bin	0.16666666666667	0
bin	0.2	0
bin	0.23333333333333	0
bin	0.26666666666667	0
bin	0.3	0
bin	0.33333333333333	0
bin	0.36666666666667	0
bin	0.4	0
bin	0.43333333333333	0
bin	0.46666666666667	0
bin	0.5	0
scalar SemiDecentralized.host[12].wlan[0].radio 	bitrate:min 	54000000
attr interpolationmode  sample-hold
attr title  "tx bitrate, min"
attr unit  bps
scalar SemiDecentralized.host[12].wlan[0].radio 	bitrate:max 	54000000
attr interpolationmode  sample-hold
attr title  "tx bitrate, max"
attr unit  bps
scalar SemiDecentralized.host[12].wlan[0].radio 	bitrate:timeavg 	54000000
attr interpolationmode  sample-hold
attr title  "tx bitrate, timeavg"
attr unit  bps
statistic SemiDecentralized.host[12].udpApp[0] 	endToEndDelay:histogram
field count 883
field mean 0.0020875675850261
field stddev 0.00043395854195993
field sum 1.843322177578
field sqrsum 0.004014157880907
field min 0.001968507903
field max 0.00647344797
attr interpolationmode  none
attr source  messageAge(rcvdPk)
attr title  "end-to-end delay, histogram"
attr unit  s
bin	-INF	0
bin	-0.0002839621305	0
bin	1.63672073e-05	0
bin	0.0003166965451	0
bin	0.0006170258829	0
bin	0.0009173552207	0
bin	0.0012176845585	0
bin	0.0015180138963	0
bin	0.0018183432341	798
bin	0.0021186725719	1
bin	0.0024190019097	15
bin	0.0027193312475	39
bin	0.0030196605853	6
bin	0.0033199899231	4
bin	0.0036203192609	6
bin	0.0039206485987	4
bin	0.0042209779365	3
bin	0.0045213072743	4
bin	0.0048216366121	2
bin	0.0051219659499	0
bin	0.0054222952877	0
bin	0.0057226246255	0
bin	0.0060229539633	0
bin	0.0063232833011	1
bin	0.0066236126389	0
bin	0.0069239419767	0
bin	0.0072242713145	0
bin	0.0075246006523	0
bin	0.0078249299901	0
bin	0.0081252593279	0
bin	0.0084255886657	0
bin	0.0087259180035	0
scalar SemiDecentralized.host[12].udp 	droppedPkBadChecksum:count 	0
attr interpolationmode  none
attr title  "packets dropped (checksum error), count"
scalar SemiDecentralized.host[12].udp 	droppedPkWrongPort:count 	0
attr interpolationmode  none
attr title  "packets dropped (wrong port), count"
scalar SemiDecentralized.host[12].udp 	passedUpPk:count 	883
attr interpolationmode  none
attr title  "packets passed up, count"
scalar SemiDecentralized.host[12].udp 	rcvdPk:count 	883
attr interpolationmode  none
attr source  rcvdPk
attr title  "packets received, count"
scalar SemiDecentralized.host[12].udp 	rcvdPk:sum(packetBytes) 	459160
attr interpolationmode  none
attr source  rcvdPk
attr title  "packets received, sum(packetBytes)"
scalar SemiDecentralized.host[12].udp 	sentPk:count 	0
attr interpolationmode  none
attr source  sentPk
attr title  "packets sent, count"
scalar SemiDecentralized.host[12].udp 	sentPk:sum(packetBytes) 	0
attr interpolationmode  none
attr source  sentPk
attr title  "packets sent, sum(packetBytes)"
statistic SemiDecentralized.host[12].aodv 	NumSentAODVPackets
field count 2
field mean 1.5
field stddev 0.70710678118655
field sum 3
field sqrsum 5
field min 1
field max 2
statistic SemiDecentralized.host[12].aodv 	NumReceivedAODVPackets
field count 0
field mean -nan
field stddev -nan
field sum 0
field sqrsum 0
field min -nan
field max -nan
scalar SemiDecentralized.host[12].aodv 	"Number of LinkBreaks" 	0
scalar SemiDecentralized.host[12].aodv 	RERRSentNow 	0
scalar SemiDecentralized.host[12].rsmgmnt 	"Number Received RouteResponses" 	0
scalar SemiDecentralized.host[12].rsmgmnt 	"Number Sent RREQs" 	0
scalar SemiDecentralized.host[13].wlan[0].mac 	"number of receiveunsigned d packets" 	4
scalar SemiDecentralized.host[13].wlan[0].mac 	"number of collisions" 	2219
scalar SemiDecentralized.host[13].wlan[0].mac 	"number of internal collisions" 	0
scalar SemiDecentralized.host[13].wlan[0].mac 	"number of retry for AC 0" 	32
scalar SemiDecentralized.host[13].wlan[0].mac 	"sent and received bits" 	4367936
scalar SemiDecentralized.host[13].wlan[0].mac 	"sent packet within AC 0" 	883
scalar SemiDecentralized.host[13].wlan[0].mac 	"sent in TXOP " 	0
scalar SemiDecentralized.host[13].wlan[0].mac 	"sentWithoutRetry AC 0" 	856
scalar SemiDecentralized.host[13].wlan[0].mac 	"numGivenUp AC 0" 	0
scalar SemiDecentralized.host[13].wlan[0].mac 	"numDropped AC 0" 	0
scalar SemiDecentralized.host[13].wlan[0].radio 	lossRate:min 	0
attr interpolationmode  backward-sample-hold
attr title  "packet loss rate, min"
scalar SemiDecentralized.host[13].wlan[0].radio 	lossRate:max 	0.2
attr interpolationmode  backward-sample-hold
attr title  "packet loss rate, max"
scalar SemiDecentralized.host[13].wlan[0].radio 	lossRate:timeavg 	0.061479293002456
attr interpolationmode  backward-sample-hold
attr title  "packet loss rate, timeavg"
statistic SemiDecentralized.host[13].wlan[0].radio 	channelNo:histogram
field count 1
field mean 0
field stddev -nan
field sum 0
field sqrsum 0
field min 0
field max 0
attr interpolationmode  sample-hold
attr title  "channel no, histogram"
bin	-INF	0
bin	-0.5	0
bin	-0.46666666666667	0
bin	-0.43333333333333	0
bin	-0.4	0
bin	-0.36666666666667	0
bin	-0.33333333333333	0
bin	-0.3	0
bin	-0.26666666666667	0
bin	-0.23333333333333	0
bin	-0.2	0
bin	-0.16666666666667	0
bin	-0.13333333333333	0
bin	-0.1	0
bin	-0.066666666666667	0
bin	-0.033333333333333	0
bin	0	1
bin	0.033333333333333	0
bin	0.066666666666667	0
bin	0.1	0
bin	0.13333333333333	0
bin	0.16666666666667	0
bin	0.2	0
bin	0.23333333333333	0
bin	0.26666666666667	0
bin	0.3	0
bin	0.33333333333333	0
bin	0.36666666666667	0
bin	0.4	0
bin	0.43333333333333	0
bin	0.46666666666667	0
bin	0.5	0
scalar SemiDecentralized.host[13].wlan[0].radio 	bitrate:min 	54000000
attr interpolationmode  sample-hold
attr title  "tx bitrate, min"
attr unit  bps
scalar SemiDecentralized.host[13].wlan[0].radio 	bitrate:max 	54000000
attr interpolationmode  sample-hold
attr title  "tx bitrate, max"
attr unit  bps
scalar SemiDecentralized.host[13].wlan[0].radio 	bitrate:timeavg 	54000000
attr interpolationmode  sample-hold
attr title  "tx bitrate, timeavg"
attr unit  bps
scalar SemiDecentralized.host[13].udpApp[0] 	"packets sent" 	883
scalar SemiDecentralized.host[13].udpApp[0] 	"packets received" 	0
statistic SemiDecentralized.host[13].udpApp[0] 	rcvdPkLifetime:stats
field count 0
field mean -nan
field stddev -nan
field sum 0
field sqrsum 0
field min -nan
field max -nan
attr interpolationmode  none
attr source  messageAge(rcvdPk)
attr title  "received packet lifetime, stats"
attr unit  s
scalar SemiDecentralized.host[13].udp 	droppedPkBadChecksum:count 	0
attr interpolationmode  none
attr title  "packets dropped (checksum error), count"
scalar SemiDecentralized.host[13].udp 	droppedPkWrongPort:count 	0
attr interpolationmode  none
attr title  "packets dropped (wrong port), count"
scalar SemiDecentralized.host[13].udp 	passedUpPk:count 	0
attr interpolationmode  none
attr title  "packets passed up, count"
scalar SemiDecentralized.host[13].udp 	rcvdPk:count 	0
attr interpolationmode  none
attr source  rcvdPk
attr title  "packets received, count"
scalar SemiDecentralized.host[13].udp 	rcvdPk:sum(packetBytes) 	0
attr interpolationmode  none
attr source  rcvdPk
attr title  "packets received, sum(packetBytes)"
scalar SemiDecentralized.host[13].udp 	sentPk:count 	883
attr interpolationmode  none
attr source  sentPk
attr title  "packets sent, count"
scalar SemiDecentralized.host[13].udp 	sentPk:sum(packetBytes) 	459160
attr interpolationmode  none
attr source  sentPk
attr title  "packets sent, sum(packetBytes)"
statistic SemiDecentralized.host[13].aodv 	NumSentAODVPackets
field count 1
field mean 1
field stddev -nan
field sum 1
field sqrsum 1
field min 1
field max 1
statistic SemiDecentralized.host[13].aodv 	NumReceivedAODVPackets
field count 1
field mean 1
field stddev -nan
field sum 1
field sqrsum 1
field min 1
field max 1
scalar SemiDecentralized.host[13].aodv 	"Number of LinkBreaks" 	0
scalar SemiDecentralized.host[13].aodv 	RERRSentNow 	0
scalar SemiDecentralized.host[13].rsmgmnt 	"Number Received RouteResponses" 	1
scalar SemiDecentralized.host[13].rsmgmnt 	"Number Sent RREQs" 	1
scalar SemiDecentralized.host[14].wlan[0].mac 	"number of receiveunsigned d packets" 	4445
scalar SemiDecentralized.host[14].wlan[0].mac 	"number of collisions" 	729
scalar SemiDecentralized.host[14].wlan[0].mac 	"number of internal collisions" 	0
scalar SemiDecentralized.host[14].wlan[0].mac 	"number of retry for AC 0" 	59
scalar SemiDecentralized.host[14].wlan[0].mac 	"sent and received bits" 	16774640
scalar SemiDecentralized.host[14].wlan[0].mac 	"sent packet within AC 0" 	3552
scalar SemiDecentralized.host[14].wlan[0].mac 	"sent in TXOP " 	0
scalar SemiDecentralized.host[14].wlan[0].mac 	"sentWithoutRetry AC 0" 	3505
scalar SemiDecentralized.host[14].wlan[0].mac 	"numGivenUp AC 0" 	0
scalar SemiDecentralized.host[14].wlan[0].mac 	"numDropped AC 0" 	0
scalar SemiDecentralized.host[14].wlan[0].radio 	lossRate:min 	0
attr interpolationmode  backward-sample-hold
attr title  "packet loss rate, min"
scalar SemiDecentralized.host[14].wlan[0].radio 	lossRate:max 	0.12
attr interpolationmode  backward-sample-hold
attr title  "packet loss rate, max"
scalar SemiDecentralized.host[14].wlan[0].radio 	lossRate:timeavg 	0.011351997775223
attr interpolationmode  backward-sample-hold
attr title  "packet loss rate, timeavg"
statistic SemiDecentralized.host[14].wlan[0].radio 	channelNo:histogram
field count 1
field mean 0
field stddev -nan
field sum 0
field sqrsum 0
field min 0
field max 0
attr interpolationmode  sample-hold
attr title  "channel no, histogram"
bin	-INF	0
bin	-0.5	0
bin	-0.46666666666667	0
bin	-0.43333333333333	0
bin	-0.4	0
bin	-0.36666666666667	0
bin	-0.33333333333333	0
bin	-0.3	0
bin	-0.26666666666667	0
bin	-0.23333333333333	0
bin	-0.2	0
bin	-0.16666666666667	0
bin	-0.13333333333333	0
bin	-0.1	0
bin	-0.066666666666667	0
bin	-0.033333333333333	0
bin	0	1
bin	0.033333333333333	0
bin	0.066666666666667	0
bin	0.1	0
bin	0.13333333333333	0
bin	0.16666666666667	0
bin	0.2	0
bin	0.23333333333333	0
bin	0.26666666666667	0
bin	0.3	0
bin	0.33333333333333	0
bin	0.36666666666667	0
bin	0.4	0
bin	0.43333333333333	0
bin	0.46666666666667	0
bin	0.5	0
scalar SemiDecentralized.host[14].wlan[0].radio 	bitrate:min 	54000000
attr interpolationmode  sample-hold
attr title  "tx bitrate, min"
attr unit  bps
scalar SemiDecentralized.host[14].wlan[0].radio 	bitrate:max 	54000000
attr interpolationmode  sample-hold
attr title  "tx bitrate, max"
attr unit  bps
scalar SemiDecentralized.host[14].wlan[0].radio 	bitrate:timeavg 	54000000
attr interpolationmode  sample-hold
attr title  "tx bitrate, timeavg"
attr unit  bps
statistic SemiDecentralized.host[14].udpApp[0] 	endToEndDelay:histogram
field count 888
field mean 0.00065268783089414
field stddev 0.0002487055112368
field sum 0.57958679383399
field sqrsum 0.00043315412786285
field min 0.00059890441
field max 0.002927616278
attr interpolationmode  none
attr source  messageAge(rcvdPk)
attr title  "end-to-end delay, histogram"
attr unit  s
bin	-INF	0
bin	-0.000565451524	0
bin	-0.00041020406613333	0
bin	-0.00025495660826667	0
bin	-9.97091504e-05	0
bin	5.5538307466667e-05	0
bin	0.00021078576533333	0
bin	0.0003660332232	0
bin	0.00052128068106667	838
bin	0.00067652813893333	2
bin	0.0008317755968	4
bin	0.00098702305466667	2
bin	0.0011422705125333	5
bin	0.0012975179704	10
bin	0.0014527654282667	12
bin	0.0016080128861333	3
bin	0.001763260344	1
bin	0.0019185078018667	4
bin	0.0020737552597333	4
bin	0.0022290027176	0
bin	0.0023842501754667	0
bin	0.0025394976333333	1
bin	0.0026947450912	1
bin	0.0028499925490667	1
bin	0.0030052400069333	0
bin	0.0031604874648	0
bin	0.0033157349226667	0
bin	0.0034709823805333	0
bin	0.0036262298384	0
bin	0.0037814772962667	0
bin	0.0039367247541333	0
bin	0.004091972212	0
scalar SemiDecentralized.host[14].udp 	droppedPkBadChecksum:count 	0
attr interpolationmode  none
attr title  "packets dropped (checksum error), count"
scalar SemiDecentralized.host[14].udp 	droppedPkWrongPort:count 	0
attr interpolationmode  none
attr title  "packets dropped (wrong port), count"
scalar SemiDecentralized.host[14].udp 	passedUpPk:count 	888
attr interpolationmode  none
attr title  "packets passed up, count"
scalar SemiDecentralized.host[14].udp 	rcvdPk:count 	888
attr interpolationmode  none
attr source  rcvdPk
attr title  "packets received, count"
scalar SemiDecentralized.host[14].udp 	rcvdPk:sum(packetBytes) 	461760
attr interpolationmode  none
attr source  rcvdPk
attr title  "packets received, sum(packetBytes)"
scalar SemiDecentralized.host[14].udp 	sentPk:count 	0
attr interpolationmode  none
attr source  sentPk
attr title  "packets sent, count"
scalar SemiDecentralized.host[14].udp 	sentPk:sum(packetBytes) 	0
attr interpolationmode  none
attr source  sentPk
attr title  "packets sent, sum(packetBytes)"
statistic SemiDecentralized.host[14].aodv 	NumSentAODVPackets
field count 4
field mean 2.5
field stddev 1.2909944487358
field sum 10
field sqrsum 30
field min 1
field max 4
statistic SemiDecentralized.host[14].aodv 	NumReceivedAODVPackets
field count 0
field mean -nan
field stddev -nan
field sum 0
field sqrsum 0
field min -nan
field max -nan
scalar SemiDecentralized.host[14].aodv 	"Number of LinkBreaks" 	0
scalar SemiDecentralized.host[14].aodv 	RERRSentNow 	0
scalar SemiDecentralized.host[14].rsmgmnt 	"Number Received RouteResponses" 	0
scalar SemiDecentralized.host[14].rsmgmnt 	"Number Sent RREQs" 	0
scalar SemiDecentralized.host[15].wlan[0].mac 	"number of receiveunsigned d packets" 	898
scalar SemiDecentralized.host[15].wlan[0].mac 	"number of collisions" 	1963
scalar SemiDecentralized.host[15].wlan[0].mac 	"number of internal collisions" 	0
scalar SemiDecentralized.host[15].wlan[0].mac 	"number of retry for AC 0" 	170
scalar SemiDecentralized.host[15].wlan[0].mac 	"sent and received bits" 	8532272
scalar SemiDecentralized.host[15].wlan[0].mac 	"sent packet within AC 0" 	1779
scalar SemiDecentralized.host[15].wlan[0].mac 	"sent in TXOP " 	0
scalar SemiDecentralized.host[15].wlan[0].mac 	"sentWithoutRetry AC 0" 	1632
scalar SemiDecentralized.host[15].wlan[0].mac 	"numGivenUp AC 0" 	0
scalar SemiDecentralized.host[15].wlan[0].mac 	"numDropped AC 0" 	0
scalar SemiDecentralized.host[15].wlan[0].radio 	lossRate:min 	0
attr interpolationmode  backward-sample-hold
attr title  "packet loss rate, min"
scalar SemiDecentralized.host[15].wlan[0].radio 	lossRate:max 	0.18
attr interpolationmode  backward-sample-hold
attr title  "packet loss rate, max"
scalar SemiDecentralized.host[15].wlan[0].radio 	lossRate:timeavg 	0.092054458916587
attr interpolationmode  backward-sample-hold
attr title  "packet loss rate, timeavg"
statistic SemiDecentralized.host[15].wlan[0].radio 	channelNo:histogram
field count 1
field mean 0
field stddev -nan
field sum 0
field sqrsum 0
field min 0
field max 0
attr interpolationmode  sample-hold
attr title  "channel no, histogram"
bin	-INF	0
bin	-0.5	0
bin	-0.46666666666667	0
bin	-0.43333333333333	0
bin	-0.4	0
bin	-0.36666666666667	0
bin	-0.33333333333333	0
bin	-0.3	0
bin	-0.26666666666667	0
bin	-0.23333333333333	0
bin	-0.2	0
bin	-0.16666666666667	0
bin	-0.13333333333333	0
bin	-0.1	0
bin	-0.066666666666667	0
bin	-0.033333333333333	0
bin	0	1
bin	0.033333333333333	0
bin	0.066666666666667	0
bin	0.1	0
bin	0.13333333333333	0
bin	0.16666666666667	0
bin	0.2	0
bin	0.23333333333333	0
bin	0.26666666666667	0
bin	0.3	0
bin	0.33333333333333	0
bin	0.36666666666667	0
bin	0.4	0
bin	0.43333333333333	0
bin	0.46666666666667	0
bin	0.5	0
scalar SemiDecentralized.host[15].wlan[0].radio 	bitrate:min 	54000000
attr interpolationmode  sample-hold
attr title  "tx bitrate, min"
attr unit  bps
scalar SemiDecentralized.host[15].wlan[0].radio 	bitrate:max 	54000000
attr interpolationmode  sample-hold
attr title  "tx bitrate, max"
attr unit  bps
scalar SemiDecentralized.host[15].wlan[0].radio 	bitrate:timeavg 	54000000
attr interpolationmode  sample-hold
attr title  "tx bitrate, timeavg"
attr unit  bps
scalar SemiDecentralized.host[15].udpApp[0] 	"packets sent" 	888
scalar SemiDecentralized.host[15].udpApp[0] 	"packets received" 	0
statistic SemiDecentralized.host[15].udpApp[0] 	rcvdPkLifetime:stats
field count 0
field mean -nan
field stddev -nan
field sum 0
field sqrsum 0
field min -nan
field max -nan
attr interpolationmode  none
attr source  messageAge(rcvdPk)
attr title  "received packet lifetime, stats"
attr unit  s
scalar SemiDecentralized.host[15].udp 	droppedPkBadChecksum:count 	0
attr interpolationmode  none
attr title  "packets dropped (checksum error), count"
scalar SemiDecentralized.host[15].udp 	droppedPkWrongPort:count 	0
attr interpolationmode  none
attr title  "packets dropped (wrong port), count"
scalar SemiDecentralized.host[15].udp 	passedUpPk:count 	0
attr interpolationmode  none
attr title  "packets passed up, count"
scalar SemiDecentralized.host[15].udp 	rcvdPk:count 	0
attr interpolationmode  none
attr source  rcvdPk
attr title  "packets received, count"
scalar SemiDecentralized.host[15].udp 	rcvdPk:sum(packetBytes) 	0
attr interpolationmode  none
attr source  rcvdPk
attr title  "packets received, sum(packetBytes)"
scalar SemiDecentralized.host[15].udp 	sentPk:count 	888
attr interpolationmode  none
attr source  sentPk
attr title  "packets sent, count"
scalar SemiDecentralized.host[15].udp 	sentPk:sum(packetBytes) 	461760
attr interpolationmode  none
attr source  sentPk
attr title  "packets sent, sum(packetBytes)"
statistic SemiDecentralized.host[15].aodv 	NumSentAODVPackets
field count 2
field mean 1.5
field stddev 0.70710678118655
field sum 3
field sqrsum 5
field min 1
field max 2
statistic SemiDecentralized.host[15].aodv 	NumReceivedAODVPackets
field count 1
field mean 1
field stddev -nan
field sum 1
field sqrsum 1
field min 1
field max 1
scalar SemiDecentralized.host[15].aodv 	"Number of LinkBreaks" 	0
scalar SemiDecentralized.host[15].aodv 	RERRSentNow 	0
scalar SemiDecentralized.host[15].rsmgmnt 	"Number Received RouteResponses" 	1
scalar SemiDecentralized.host[15].rsmgmnt 	"Number Sent RREQs" 	1
scalar SemiDecentralized.host[16].wlan[0].mac 	"number of receiveunsigned d packets" 	883
scalar SemiDecentralized.host[16].wlan[0].mac 	"number of collisions" 	241
scalar SemiDecentralized.host[16].wlan[0].mac 	"number of internal collisions" 	0
scalar SemiDecentralized.host[16].wlan[0].mac 	"number of retry for AC 0" 	0
scalar SemiDecentralized.host[16].wlan[0].mac 	"sent and received bits" 	258368
scalar SemiDecentralized.host[16].wlan[0].mac 	"sent packet within AC 0" 	7
scalar SemiDecentralized.host[16].wlan[0].mac 	"sent in TXOP " 	0
scalar SemiDecentralized.host[16].wlan[0].mac 	"sentWithoutRetry AC 0" 	7
scalar SemiDecentralized.host[16].wlan[0].mac 	"numGivenUp AC 0" 	0
scalar SemiDecentralized.host[16].wlan[0].mac 	"numDropped AC 0" 	0
scalar SemiDecentralized.host[16].wlan[0].radio 	lossRate:min 	0
attr interpolationmode  backward-sample-hold
attr title  "packet loss rate, min"
[...]
scalar SemiDecentralized.host[59].wlan[0].mac 	"number of retry for AC 0" 	32
scalar SemiDecentralized.host[59].wlan[0].mac 	"sent and received bits" 	8545808
scalar SemiDecentralized.host[59].wlan[0].mac 	"sent packet within AC 0" 	1786
scalar SemiDecentralized.host[59].wlan[0].mac 	"sent in TXOP " 	0
scalar SemiDecentralized.host[59].wlan[0].mac 	"sentWithoutRetry AC 0" 	1756
scalar SemiDecentralized.host[59].wlan[0].mac 	"numGivenUp AC 0" 	0
scalar SemiDecentralized.host[59].wlan[0].mac 	"numDropped AC 0" 	0
scalar SemiDecentralized.host[59].wlan[0].radio 	lossRate:min 	0
attr interpolationmode  backward-sample-hold
attr title  "packet loss rate, min"
scalar SemiDecentralized.host[59].wlan[0].radio 	lossRate:max 	0.14
attr interpolationmode  backward-sample-hold
attr title  "packet loss rate, max"
scalar SemiDecentralized.host[59].wlan[0].radio 	lossRate:timeavg 	0.033086983639198
attr interpolationmode  backward-sample-hold
attr title  "packet loss rate, timeavg"
statistic SemiDecentralized.host[59].wlan[0].radio 	channelNo:histogram
field count 1
field mean 0
field stddev -nan
field sum 0
field sqrsum 0
field min 0
field max 0
attr interpolationmode  sample-hold
attr title  "channel no, histogram"
bin	-INF	0
bin	-0.5	0
bin	-0.46666666666667	0
bin	-0.43333333333333	0
bin	-0.4	0
bin	-0.36666666666667	0
bin	-0.33333333333333	0
bin	-0.3	0
bin	-0.26666666666667	0
bin	-0.23333333333333	0
bin	-0.2	0
bin	-0.16666666666667	0
bin	-0.13333333333333	0
bin	-0.1	0
bin	-0.066666666666667	0
bin	-0.033333333333333	0
bin	0	1
bin	0.033333333333333	0
bin	0.066666666666667	0
bin	0.1	0
bin	0.13333333333333	0
bin	0.16666666666667	0
bin	0.2	0
bin	0.23333333333333	0
bin	0.26666666666667	0
bin	0.3	0
bin	0.33333333333333	0
bin	0.36666666666667	0
bin	0.4	0
bin	0.43333333333333	0
bin	0.46666666666667	0
bin	0.5	0
scalar SemiDecentralized.host[59].wlan[0].radio 	bitrate:min 	54000000
attr interpolationmode  sample-hold
attr title  "tx bitrate, min"
attr unit  bps
scalar SemiDecentralized.host[59].wlan[0].radio 	bitrate:max 	54000000
attr interpolationmode  sample-hold
attr title  "tx bitrate, max"
attr unit  bps
scalar SemiDecentralized.host[59].wlan[0].radio 	bitrate:timeavg 	54000000
attr interpolationmode  sample-hold
attr title  "tx bitrate, timeavg"
attr unit  bps
scalar SemiDecentralized.host[59].udpApp[0] 	"packets sent" 	888
scalar SemiDecentralized.host[59].udpApp[0] 	"packets received" 	0
statistic SemiDecentralized.host[59].udpApp[0] 	rcvdPkLifetime:stats
field count 0
field mean -nan
field stddev -nan
field sum 0
field sqrsum 0
field min -nan
field max -nan
attr interpolationmode  none
attr source  messageAge(rcvdPk)
attr title  "received packet lifetime, stats"
attr unit  s
scalar SemiDecentralized.host[59].udp 	droppedPkBadChecksum:count 	0
attr interpolationmode  none
attr title  "packets dropped (checksum error), count"
scalar SemiDecentralized.host[59].udp 	droppedPkWrongPort:count 	0
attr interpolationmode  none
attr title  "packets dropped (wrong port), count"
scalar SemiDecentralized.host[59].udp 	passedUpPk:count 	0
attr interpolationmode  none
attr title  "packets passed up, count"
scalar SemiDecentralized.host[59].udp 	rcvdPk:count 	0
attr interpolationmode  none
attr source  rcvdPk
attr title  "packets received, count"
scalar SemiDecentralized.host[59].udp 	rcvdPk:sum(packetBytes) 	0
attr interpolationmode  none
attr source  rcvdPk
attr title  "packets received, sum(packetBytes)"
scalar SemiDecentralized.host[59].udp 	sentPk:count 	888
attr interpolationmode  none
attr source  sentPk
attr title  "packets sent, count"
scalar SemiDecentralized.host[59].udp 	sentPk:sum(packetBytes) 	461760
attr interpolationmode  none
attr source  sentPk
attr title  "packets sent, sum(packetBytes)"
statistic SemiDecentralized.host[59].aodv 	NumSentAODVPackets
field count 2
field mean 1.5
field stddev 0.70710678118655
field sum 3
field sqrsum 5
field min 1
field max 2
statistic SemiDecentralized.host[59].aodv 	NumReceivedAODVPackets
field count 1
field mean 1
field stddev -nan
field sum 1
field sqrsum 1
field min 1
field max 1
scalar SemiDecentralized.host[59].aodv 	"Number of LinkBreaks" 	0
scalar SemiDecentralized.host[59].aodv 	RERRSentNow 	0
scalar SemiDecentralized.host[59].rsmgmnt 	"Number Received RouteResponses" 	1
scalar SemiDecentralized.host[59].rsmgmnt 	"Number Sent RREQs" 	1
scalar SemiDecentralized.host[60].wlan[0].mac 	"number of receiveunsigned d packets" 	0
scalar SemiDecentralized.host[60].wlan[0].mac 	"number of collisions" 	193
scalar SemiDecentralized.host[60].wlan[0].mac 	"number of internal collisions" 	0
scalar SemiDecentralized.host[60].wlan[0].mac 	"number of retry for AC 0" 	0
scalar SemiDecentralized.host[60].wlan[0].mac 	"sent and received bits" 	255440
scalar SemiDecentralized.host[60].wlan[0].mac 	"sent packet within AC 0" 	0
scalar SemiDecentralized.host[60].wlan[0].mac 	"sent in TXOP " 	0
scalar SemiDecentralized.host[60].wlan[0].mac 	"sentWithoutRetry AC 0" 	0
scalar SemiDecentralized.host[60].wlan[0].mac 	"numGivenUp AC 0" 	0
scalar SemiDecentralized.host[60].wlan[0].mac 	"numDropped AC 0" 	0
scalar SemiDecentralized.host[60].wlan[0].radio 	lossRate:min 	0
attr interpolationmode  backward-sample-hold
attr title  "packet loss rate, min"
scalar SemiDecentralized.host[60].wlan[0].radio 	lossRate:max 	0.16
attr interpolationmode  backward-sample-hold
attr title  "packet loss rate, max"
scalar SemiDecentralized.host[60].wlan[0].radio 	lossRate:timeavg 	0.0096847763990825
attr interpolationmode  backward-sample-hold
attr title  "packet loss rate, timeavg"
statistic SemiDecentralized.host[60].wlan[0].radio 	channelNo:histogram
field count 1
field mean 0
field stddev -nan
field sum 0
field sqrsum 0
field min 0
field max 0
attr interpolationmode  sample-hold
attr title  "channel no, histogram"
bin	-INF	0
bin	-0.5	0
bin	-0.46666666666667	0
bin	-0.43333333333333	0
bin	-0.4	0
bin	-0.36666666666667	0
bin	-0.33333333333333	0
bin	-0.3	0
bin	-0.26666666666667	0
bin	-0.23333333333333	0
bin	-0.2	0
bin	-0.16666666666667	0
bin	-0.13333333333333	0
bin	-0.1	0
bin	-0.066666666666667	0
bin	-0.033333333333333	0
bin	0	1
bin	0.033333333333333	0
bin	0.066666666666667	0
bin	0.1	0
bin	0.13333333333333	0
bin	0.16666666666667	0
bin	0.2	0
bin	0.23333333333333	0
bin	0.26666666666667	0
bin	0.3	0
bin	0.33333333333333	0
bin	0.36666666666667	0
bin	0.4	0
bin	0.43333333333333	0
bin	0.46666666666667	0
bin	0.5	0
scalar SemiDecentralized.host[60].wlan[0].radio 	bitrate:min 	54000000
attr interpolationmode  sample-hold
attr title  "tx bitrate, min"
attr unit  bps
scalar SemiDecentralized.host[60].wlan[0].radio 	bitrate:max 	54000000
attr interpolationmode  sample-hold
attr title  "tx bitrate, max"
attr unit  bps
scalar SemiDecentralized.host[60].wlan[0].radio 	bitrate:timeavg 	54000000
attr interpolationmode  sample-hold
attr title  "tx bitrate, timeavg"
attr unit  bps
statistic SemiDecentralized.host[60].aodv 	NumSentAODVPackets
field count 0
field mean -nan
field stddev -nan
field sum 0
field sqrsum 0
field min -nan
field max -nan
statistic SemiDecentralized.host[60].aodv 	NumReceivedAODVPackets
field count 0
field mean -nan
field stddev -nan
field sum 0
field sqrsum 0
field min -nan
field max -nan
scalar SemiDecentralized.host[60].aodv 	"Number of LinkBreaks" 	0
scalar SemiDecentralized.host[60].aodv 	RERRSentNow 	0
scalar SemiDecentralized.host[60].rsmgmnt 	"Number Received RouteResponses" 	0
scalar SemiDecentralized.host[60].rsmgmnt 	"Number Sent RREQs" 	0
scalar SemiDecentralized.host[61].wlan[0].mac 	"number of receiveunsigned d packets" 	3551
scalar SemiDecentralized.host[61].wlan[0].mac 	"number of collisions" 	791
scalar SemiDecentralized.host[61].wlan[0].mac 	"number of internal collisions" 	0
scalar SemiDecentralized.host[61].wlan[0].mac 	"number of retry for AC 0" 	65
scalar SemiDecentralized.host[61].wlan[0].mac 	"sent and received bits" 	16773024
scalar SemiDecentralized.host[61].wlan[0].mac 	"sent packet within AC 0" 	3557
scalar SemiDecentralized.host[61].wlan[0].mac 	"sent in TXOP " 	0
scalar SemiDecentralized.host[61].wlan[0].mac 	"sentWithoutRetry AC 0" 	3504
scalar SemiDecentralized.host[61].wlan[0].mac 	"numGivenUp AC 0" 	0
scalar SemiDecentralized.host[61].wlan[0].mac 	"numDropped AC 0" 	0
scalar SemiDecentralized.host[61].wlan[0].radio 	lossRate:min 	0
attr interpolationmode  backward-sample-hold
attr title  "packet loss rate, min"
scalar SemiDecentralized.host[61].wlan[0].radio 	lossRate:max 	0.12
attr interpolationmode  backward-sample-hold
attr title  "packet loss rate, max"
scalar SemiDecentralized.host[61].wlan[0].radio 	lossRate:timeavg 	0.011072276742404
attr interpolationmode  backward-sample-hold
attr title  "packet loss rate, timeavg"
statistic SemiDecentralized.host[61].wlan[0].radio 	channelNo:histogram
field count 1
field mean 0
field stddev -nan
field sum 0
field sqrsum 0
field min 0
field max 0
attr interpolationmode  sample-hold
attr title  "channel no, histogram"
bin	-INF	0
bin	-0.5	0
bin	-0.46666666666667	0
bin	-0.43333333333333	0
bin	-0.4	0
bin	-0.36666666666667	0
bin	-0.33333333333333	0
bin	-0.3	0
bin	-0.26666666666667	0
bin	-0.23333333333333	0
bin	-0.2	0
bin	-0.16666666666667	0
bin	-0.13333333333333	0
bin	-0.1	0
bin	-0.066666666666667	0
bin	-0.033333333333333	0
bin	0	1
bin	0.033333333333333	0
bin	0.066666666666667	0
bin	0.1	0
bin	0.13333333333333	0
bin	0.16666666666667	0
bin	0.2	0
bin	0.23333333333333	0
bin	0.26666666666667	0
bin	0.3	0
bin	0.33333333333333	0
bin	0.36666666666667	0
bin	0.4	0
bin	0.43333333333333	0
bin	0.46666666666667	0
bin	0.5	0
scalar SemiDecentralized.host[61].wlan[0].radio 	bitrate:min 	54000000
attr interpolationmode  sample-hold
attr title  "tx bitrate, min"
attr unit  bps
scalar SemiDecentralized.host[61].wlan[0].radio 	bitrate:max 	54000000
attr interpolationmode  sample-hold
attr title  "tx bitrate, max"
attr unit  bps
scalar SemiDecentralized.host[61].wlan[0].radio 	bitrate:timeavg 	54000000
attr interpolationmode  sample-hold
attr title  "tx bitrate, timeavg"
attr unit  bps
statistic SemiDecentralized.host[61].aodv 	NumSentAODVPackets
field count 4
field mean 2.5
field stddev 1.2909944487358
field sum 10
field sqrsum 30
field min 1
field max 4
statistic SemiDecentralized.host[61].aodv 	NumReceivedAODVPackets
field count 0
field mean -nan
field stddev -nan
field sum 0
field sqrsum 0
field min -nan
field max -nan
scalar SemiDecentralized.host[61].aodv 	"Number of LinkBreaks" 	0
scalar SemiDecentralized.host[61].aodv 	RERRSentNow 	0
scalar SemiDecentralized.host[61].rsmgmnt 	"Number Received RouteResponses" 	0
scalar SemiDecentralized.host[61].rsmgmnt 	"Number Sent RREQs" 	0
scalar SemiDecentralized.host[62].wlan[0].mac 	"number of receiveunsigned d packets" 	895
scalar SemiDecentralized.host[62].wlan[0].mac 	"number of collisions" 	377
scalar SemiDecentralized.host[62].wlan[0].mac 	"number of internal collisions" 	0
scalar SemiDecentralized.host[62].wlan[0].mac 	"number of retry for AC 0" 	15
scalar SemiDecentralized.host[62].wlan[0].mac 	"sent and received bits" 	4397808
scalar SemiDecentralized.host[62].wlan[0].mac 	"sent packet within AC 0" 	895
scalar SemiDecentralized.host[62].wlan[0].mac 	"sent in TXOP " 	0
scalar SemiDecentralized.host[62].wlan[0].mac 	"sentWithoutRetry AC 0" 	884
scalar SemiDecentralized.host[62].wlan[0].mac 	"numGivenUp AC 0" 	0
scalar SemiDecentralized.host[62].wlan[0].mac 	"numDropped AC 0" 	0
scalar SemiDecentralized.host[62].wlan[0].radio 	lossRate:min 	0
attr interpolationmode  backward-sample-hold
attr title  "packet loss rate, min"
scalar SemiDecentralized.host[62].wlan[0].radio 	lossRate:max 	0.1
attr interpolationmode  backward-sample-hold
attr title  "packet loss rate, max"
scalar SemiDecentralized.host[62].wlan[0].radio 	lossRate:timeavg 	0.0094125509381161
attr interpolationmode  backward-sample-hold
attr title  "packet loss rate, timeavg"
statistic SemiDecentralized.host[62].wlan[0].radio 	channelNo:histogram
field count 1
field mean 0
field stddev -nan
field sum 0
field sqrsum 0
field min 0
field max 0
attr interpolationmode  sample-hold
attr title  "channel no, histogram"
bin	-INF	0
bin	-0.5	0
bin	-0.46666666666667	0
bin	-0.43333333333333	0
bin	-0.4	0
bin	-0.36666666666667	0
bin	-0.33333333333333	0
bin	-0.3	0
bin	-0.26666666666667	0
bin	-0.23333333333333	0
bin	-0.2	0
bin	-0.16666666666667	0
bin	-0.13333333333333	0
bin	-0.1	0
bin	-0.066666666666667	0
bin	-0.033333333333333	0
bin	0	1
bin	0.033333333333333	0
bin	0.066666666666667	0
bin	0.1	0
bin	0.13333333333333	0
bin	0.16666666666667	0
bin	0.2	0
bin	0.23333333333333	0
bin	0.26666666666667	0
bin	0.3	0
bin	0.33333333333333	0
bin	0.36666666666667	0
bin	0.4	0
bin	0.43333333333333	0
bin	0.46666666666667	0
bin	0.5	0
scalar SemiDecentralized.host[62].wlan[0].radio 	bitrate:min 	54000000
attr interpolationmode  sample-hold
attr title  "tx bitrate, min"
attr unit  bps
scalar SemiDecentralized.host[62].wlan[0].radio 	bitrate:max 	54000000
attr interpolationmode  sample-hold
attr title  "tx bitrate, max"
attr unit  bps
scalar SemiDecentralized.host[62].wlan[0].radio 	bitrate:timeavg 	54000000
attr interpolationmode  sample-hold
attr title  "tx bitrate, timeavg"
attr unit  bps
statistic SemiDecentralized.host[62].aodv 	NumSentAODVPackets
field count 1
field mean 1
field stddev -nan
field sum 1
field sqrsum 1
field min 1
field max 1
statistic SemiDecentralized.host[62].aodv 	NumReceivedAODVPackets
field count 0
field mean -nan
field stddev -nan
field sum 0
field sqrsum 0
field min -nan
field max -nan
scalar SemiDecentralized.host[62].aodv 	"Number of LinkBreaks" 	0
scalar SemiDecentralized.host[62].aodv 	RERRSentNow 	0
scalar SemiDecentralized.host[62].rsmgmnt 	"Number Received RouteResponses" 	0
scalar SemiDecentralized.host[62].rsmgmnt 	"Number Sent RREQs" 	0
scalar SemiDecentralized.host[63].wlan[0].mac 	"number of receiveunsigned d packets" 	887
scalar SemiDecentralized.host[63].wlan[0].mac 	"number of collisions" 	2821
scalar SemiDecentralized.host[63].wlan[0].mac 	"number of internal collisions" 	0
scalar SemiDecentralized.host[63].wlan[0].mac 	"number of retry for AC 0" 	12
scalar SemiDecentralized.host[63].wlan[0].mac 	"sent and received bits" 	4366640
scalar SemiDecentralized.host[63].wlan[0].mac 	"sent packet within AC 0" 	887
scalar SemiDecentralized.host[63].wlan[0].mac 	"sent in TXOP " 	0
scalar SemiDecentralized.host[63].wlan[0].mac 	"sentWithoutRetry AC 0" 	877
scalar SemiDecentralized.host[63].wlan[0].mac 	"numGivenUp AC 0" 	0
scalar SemiDecentralized.host[63].wlan[0].mac 	"numDropped AC 0" 	0
scalar SemiDecentralized.host[63].wlan[0].radio 	lossRate:min 	0
attr interpolationmode  backward-sample-hold
attr title  "packet loss rate, min"
scalar SemiDecentralized.host[63].wlan[0].radio 	lossRate:max 	0.14
attr interpolationmode  backward-sample-hold
attr title  "packet loss rate, max"
scalar SemiDecentralized.host[63].wlan[0].radio 	lossRate:timeavg 	0.027573518248861
attr interpolationmode  backward-sample-hold
attr title  "packet loss rate, timeavg"
statistic SemiDecentralized.host[63].wlan[0].radio 	channelNo:histogram
field count 1
field mean 0
field stddev -nan
field sum 0
field sqrsum 0
field min 0
field max 0
attr interpolationmode  sample-hold
attr title  "channel no, histogram"
bin	-INF	0
bin	-0.5	0
bin	-0.46666666666667	0
bin	-0.43333333333333	0
bin	-0.4	0
bin	-0.36666666666667	0
bin	-0.33333333333333	0
bin	-0.3	0
bin	-0.26666666666667	0
bin	-0.23333333333333	0
bin	-0.2	0
bin	-0.16666666666667	0
bin	-0.13333333333333	0
bin	-0.1	0
bin	-0.066666666666667	0
bin	-0.033333333333333	0
bin	0	1
bin	0.033333333333333	0
bin	0.066666666666667	0
bin	0.1	0
bin	0.13333333333333	0
bin	0.16666666666667	0
bin	0.2	0
bin	0.23333333333333	0
bin	0.26666666666667	0
bin	0.3	0
bin	0.33333333333333	0
bin	0.36666666666667	0
bin	0.4	0
bin	0.43333333333333	0
bin	0.46666666666667	0
bin	0.5	0
scalar SemiDecentralized.host[63].wlan[0].radio 	bitrate:min 	54000000
attr interpolationmode  sample-hold
attr title  "tx bitrate, min"
attr unit  bps
scalar SemiDecentralized.host[63].wlan[0].radio 	bitrate:max 	54000000
attr interpolationmode  sample-hold
attr title  "tx bitrate, max"
attr unit  bps
scalar SemiDecentralized.host[63].wlan[0].radio 	bitrate:timeavg 	54000000
attr interpolationmode  sample-hold
attr title  "tx bitrate, timeavg"
attr unit  bps
statistic SemiDecentralized.host[63].aodv 	NumSentAODVPackets
field count 1
field mean 1
field stddev -nan
field sum 1
field sqrsum 1
field min 1
field max 1
statistic SemiDecentralized.host[63].aodv 	NumReceivedAODVPackets
field count 0
field mean -nan
field stddev -nan
field sum 0
field sqrsum 0
field min -nan
field max -nan
scalar SemiDecentralized.host[63].aodv 	"Number of LinkBreaks" 	0
scalar SemiDecentralized.host[63].aodv 	RERRSentNow 	0
scalar SemiDecentralized.host[63].rsmgmnt 	"Number Received RouteResponses" 	0
scalar SemiDecentralized.host[63].rsmgmnt 	"Number Sent RREQs" 	0
scalar SemiDecentralized.host[64].wlan[0].mac 	"number of receiveunsigned d packets" 	0
scalar SemiDecentralized.host[64].wlan[0].mac 	"number of collisions" 	2071
scalar SemiDecentralized.host[64].wlan[0].mac 	"number of internal collisions" 	0
scalar SemiDecentralized.host[64].wlan[0].mac 	"number of retry for AC 0" 	0
scalar SemiDecentralized.host[64].wlan[0].mac 	"sent and received bits" 	253456
scalar SemiDecentralized.host[64].wlan[0].mac 	"sent packet within AC 0" 	0
scalar SemiDecentralized.host[64].wlan[0].mac 	"sent in TXOP " 	0
scalar SemiDecentralized.host[64].wlan[0].mac 	"sentWithoutRetry AC 0" 	0
scalar SemiDecentralized.host[64].wlan[0].mac 	"numGivenUp AC 0" 	0
scalar SemiDecentralized.host[64].wlan[0].mac 	"numDropped AC 0" 	0
scalar SemiDecentralized.host[64].wlan[0].radio 	lossRate:min 	0
attr interpolationmode  backward-sample-hold
attr title  "packet loss rate, min"
scalar SemiDecentralized.host[64].wlan[0].radio 	lossRate:max 	0.28
attr interpolationmode  backward-sample-hold
attr title  "packet loss rate, max"
scalar SemiDecentralized.host[64].wlan[0].radio 	lossRate:timeavg 	0.18217332245741
attr interpolationmode  backward-sample-hold
attr title  "packet loss rate, timeavg"
statistic SemiDecentralized.host[64].wlan[0].radio 	channelNo:histogram
field count 1
field mean 0
field stddev -nan
field sum 0
field sqrsum 0
field min 0
field max 0
attr interpolationmode  sample-hold
attr title  "channel no, histogram"
bin	-INF	0
bin	-0.5	0
bin	-0.46666666666667	0
bin	-0.43333333333333	0
bin	-0.4	0
bin	-0.36666666666667	0
bin	-0.33333333333333	0
bin	-0.3	0
bin	-0.26666666666667	0
bin	-0.23333333333333	0
bin	-0.2	0
bin	-0.16666666666667	0
bin	-0.13333333333333	0
bin	-0.1	0
bin	-0.066666666666667	0
bin	-0.033333333333333	0
bin	0	1
bin	0.033333333333333	0
bin	0.066666666666667	0
bin	0.1	0
bin	0.13333333333333	0
bin	0.16666666666667	0
bin	0.2	0
bin	0.23333333333333	0
bin	0.26666666666667	0
bin	0.3	0
bin	0.33333333333333	0
bin	0.36666666666667	0
bin	0.4	0
bin	0.43333333333333	0
bin	0.46666666666667	0
bin	0.5	0
scalar SemiDecentralized.host[64].wlan[0].radio 	bitrate:min 	54000000
attr interpolationmode  sample-hold
attr title  "tx bitrate, min"
attr unit  bps
scalar SemiDecentralized.host[64].wlan[0].radio 	bitrate:max 	54000000
attr interpolationmode  sample-hold
attr title  "tx bitrate, max"
attr unit  bps
scalar SemiDecentralized.host[64].wlan[0].radio 	bitrate:timeavg 	54000000
attr interpolationmode  sample-hold
attr title  "tx bitrate, timeavg"
attr unit  bps
statistic SemiDecentralized.host[64].aodv 	NumSentAODVPackets
field count 0
field mean -nan
field stddev -nan
field sum 0
field sqrsum 0
field min -nan
field max -nan
statistic SemiDecentralized.host[64].aodv 	NumReceivedAODVPackets
field count 0
field mean -nan
field stddev -nan
field sum 0
field sqrsum 0
field min -nan
field max -nan
scalar SemiDecentralized.host[64].aodv 	"Number of LinkBreaks" 	0
scalar SemiDecentralized.host[64].aodv 	RERRSentNow 	0
scalar SemiDecentralized.host[64].rsmgmnt 	"Number Received RouteResponses" 	0
scalar SemiDecentralized.host[64].rsmgmnt 	"Number Sent RREQs" 	0
