version 2
run AODVNetwork-0-20150729-16:46:48-1002
attr configname AODVNetwork
attr datetime 20150729-16:46:48
attr experiment AODVNetwork
attr inifile omnetpp.ini
attr iterationvars $0=0.1
attr iterationvars2 "$0=0.1, $repetition=0"
attr measurement $0=0.1
attr network BundledNetworks
attr processid 1002
attr repetition 0
attr replication #0
attr resultdir MobileThirtySourceDest
attr runnumber 0
attr seedset 0

scalar BundledNetworks.host[0].wlan[0].mac 	"number of received packets" 	930
scalar BundledNetworks.host[0].wlan[0].mac 	"number of collisions" 	2005
scalar BundledNetworks.host[0].wlan[0].mac 	"number of internal collisions" 	0
scalar BundledNetworks.host[0].wlan[0].mac 	"number of retry for AC 0" 	5
scalar BundledNetworks.host[0].wlan[0].mac 	"sent and received bits" 	274816
scalar BundledNetworks.host[0].wlan[0].mac 	"sent packet within AC 0" 	60
scalar BundledNetworks.host[0].wlan[0].mac 	"sent in TXOP " 	0
scalar BundledNetworks.host[0].wlan[0].mac 	"sentWithoutRetry AC 0" 	57
scalar BundledNetworks.host[0].wlan[0].mac 	"numGivenUp AC 0" 	0
scalar BundledNetworks.host[0].wlan[0].mac 	"numDropped AC 0" 	0
scalar BundledNetworks.host[0].wlan[0].radio 	lossRate:min 	0
attr interpolationmode  backward-sample-hold
attr title  "packet loss rate, min"
scalar BundledNetworks.host[0].wlan[0].radio 	lossRate:max 	0.38
attr interpolationmode  backward-sample-hold
attr title  "packet loss rate, max"
scalar BundledNetworks.host[0].wlan[0].radio 	lossRate:timeavg 	0.093120745099707
attr interpolationmode  backward-sample-hold
attr title  "packet loss rate, timeavg"
statistic BundledNetworks.host[0].wlan[0].radio 	channelNo:histogram
field count 1
field mean 0
field stddev -nan
field sum 0
field sqrsum 0
field min 0
field max 0
attr interpolationmode  sample-hold
attr title  "channel no, histogram"
bin	-INF	0
bin	-0.5	0
bin	-0.46666666666667	0
bin	-0.43333333333333	0
bin	-0.4	0
bin	-0.36666666666667	0
bin	-0.33333333333333	0
bin	-0.3	0
bin	-0.26666666666667	0
bin	-0.23333333333333	0
bin	-0.2	0
bin	-0.16666666666667	0
bin	-0.13333333333333	0
bin	-0.1	0
bin	-0.066666666666667	0
bin	-0.033333333333333	0
bin	0	1
bin	0.033333333333333	0
bin	0.066666666666667	0
bin	0.1	0
bin	0.13333333333333	0
bin	0.16666666666667	0
bin	0.2	0
bin	0.23333333333333	0
bin	0.26666666666667	0
bin	0.3	0
bin	0.33333333333333	0
bin	0.36666666666667	0
bin	0.4	0
bin	0.43333333333333	0
bin	0.46666666666667	0
bin	0.5	0
scalar BundledNetworks.host[0].wlan[0].radio 	bitrate:min 	54000000
attr interpolationmode  sample-hold
attr title  "tx bitrate, min"
attr unit  bps
scalar BundledNetworks.host[0].wlan[0].radio 	bitrate:max 	54000000
attr interpolationmode  sample-hold
attr title  "tx bitrate, max"
attr unit  bps
scalar BundledNetworks.host[0].wlan[0].radio 	bitrate:timeavg 	54000000
attr interpolationmode  sample-hold
attr title  "tx bitrate, timeavg"
attr unit  bps
statistic BundledNetworks.host[0].udpApp[0] 	endToEndDelay:histogram
field count 872
field mean 0.00059321729453211
field stddev 0.0013471296477921
field sum 0.517285480832
field sqrsum 0.0018875171622535
field min 0.000142374469
field max 0.025654870163
attr interpolationmode  none
attr source  messageAge(rcvdPk)
attr title  "end-to-end delay, histogram"
attr unit  s
bin	-INF	0
bin	-0.009421078231	0
bin	-0.0080851051982	0
bin	-0.0067491321654	0
bin	-0.0054131591326	0
bin	-0.0040771860998	0
bin	-0.002741213067	0
bin	-0.0014052400342	0
bin	-6.9267001400001e-05	768
bin	0.0012667060314	89
bin	0.0026026790642	9
bin	0.003938652097	1
bin	0.0052746251298	1
bin	0.0066105981626	0
bin	0.0079465711954	0
bin	0.0092825442282	1
bin	0.010618517261	0
bin	0.0119544902938	1
bin	0.0132904633266	0
bin	0.0146264363594	0
bin	0.0159624093922	0
bin	0.017298382425	0
bin	0.0186343554578	0
bin	0.0199703284906	1
bin	0.0213063015234	0
bin	0.0226422745562	0
bin	0.023978247589	0
bin	0.0253142206218	1
bin	0.0266501936546	0
bin	0.0279861666874	0
bin	0.0293221397202	0
bin	0.030658112753	0
scalar BundledNetworks.host[0].udp 	droppedPkBadChecksum:count 	0
attr interpolationmode  none
attr title  "packets dropped (checksum error), count"
scalar BundledNetworks.host[0].udp 	droppedPkWrongPort:count 	0
attr interpolationmode  none
attr title  "packets dropped (wrong port), count"
scalar BundledNetworks.host[0].udp 	passedUpPk:count 	872
attr interpolationmode  none
attr title  "packets passed up, count"
scalar BundledNetworks.host[0].udp 	rcvdPk:count 	872
attr interpolationmode  none
attr source  rcvdPk
attr title  "packets received, count"
scalar BundledNetworks.host[0].udp 	rcvdPk:sum(packetBytes) 	453440
attr interpolationmode  none
attr source  rcvdPk
attr title  "packets received, sum(packetBytes)"
scalar BundledNetworks.host[0].udp 	sentPk:count 	0
attr interpolationmode  none
attr source  sentPk
attr title  "packets sent, count"
scalar BundledNetworks.host[0].udp 	sentPk:sum(packetBytes) 	0
attr interpolationmode  none
attr source  sentPk
attr title  "packets sent, sum(packetBytes)"
statistic BundledNetworks.host[0].aodv 	NumSentAODVPackets
field count 365
field mean 183
field stddev 105.51066296825
field sum 66795
field sqrsum 16275715
field min 1
field max 365
statistic BundledNetworks.host[0].aodv 	NumReceivedAODVPackets
field count 38
field mean 19.5
field stddev 11.113055385446
field sum 741
field sqrsum 19019
field min 1
field max 38
scalar BundledNetworks.host[0].aodv 	"Number of LinkBreaks" 	0
scalar BundledNetworks.host[0].aodv 	RERRSentNow 	0
scalar BundledNetworks.host[0].aodv 	HelloMsg:count 	0
scalar BundledNetworks.host[1].wlan[0].mac 	"number of received packets" 	237
scalar BundledNetworks.host[1].wlan[0].mac 	"number of collisions" 	1749
scalar BundledNetworks.host[1].wlan[0].mac 	"number of internal collisions" 	0
scalar BundledNetworks.host[1].wlan[0].mac 	"number of retry for AC 0" 	233
scalar BundledNetworks.host[1].wlan[0].mac 	"sent and received bits" 	5152064
scalar BundledNetworks.host[1].wlan[0].mac 	"sent packet within AC 0" 	1108
scalar BundledNetworks.host[1].wlan[0].mac 	"sent in TXOP " 	0
scalar BundledNetworks.host[1].wlan[0].mac 	"sentWithoutRetry AC 0" 	938
scalar BundledNetworks.host[1].wlan[0].mac 	"numGivenUp AC 0" 	1
scalar BundledNetworks.host[1].wlan[0].mac 	"numDropped AC 0" 	0
scalar BundledNetworks.host[1].wlan[0].radio 	lossRate:min 	0
attr interpolationmode  backward-sample-hold
attr title  "packet loss rate, min"
scalar BundledNetworks.host[1].wlan[0].radio 	lossRate:max 	0.56
attr interpolationmode  backward-sample-hold
attr title  "packet loss rate, max"
scalar BundledNetworks.host[1].wlan[0].radio 	lossRate:timeavg 	0.064157686218042
attr interpolationmode  backward-sample-hold
attr title  "packet loss rate, timeavg"
statistic BundledNetworks.host[1].wlan[0].radio 	channelNo:histogram
field count 1
field mean 0
field stddev -nan
field sum 0
field sqrsum 0
field min 0
field max 0
attr interpolationmode  sample-hold
attr title  "channel no, histogram"
bin	-INF	0
bin	-0.5	0
bin	-0.46666666666667	0
bin	-0.43333333333333	0
bin	-0.4	0
bin	-0.36666666666667	0
bin	-0.33333333333333	0
bin	-0.3	0
bin	-0.26666666666667	0
bin	-0.23333333333333	0
bin	-0.2	0
bin	-0.16666666666667	0
bin	-0.13333333333333	0
bin	-0.1	0
bin	-0.066666666666667	0
bin	-0.033333333333333	0
bin	0	1
bin	0.033333333333333	0
bin	0.066666666666667	0
bin	0.1	0
bin	0.13333333333333	0
bin	0.16666666666667	0
bin	0.2	0
bin	0.23333333333333	0
bin	0.26666666666667	0
bin	0.3	0
bin	0.33333333333333	0
bin	0.36666666666667	0
bin	0.4	0
bin	0.43333333333333	0
bin	0.46666666666667	0
bin	0.5	0
scalar BundledNetworks.host[1].wlan[0].radio 	bitrate:min 	54000000
attr interpolationmode  sample-hold
attr title  "tx bitrate, min"
attr unit  bps
scalar BundledNetworks.host[1].wlan[0].radio 	bitrate:max 	54000000
attr interpolationmode  sample-hold
attr title  "tx bitrate, max"
attr unit  bps
scalar BundledNetworks.host[1].wlan[0].radio 	bitrate:timeavg 	54000000
attr interpolationmode  sample-hold
attr title  "tx bitrate, timeavg"
attr unit  bps
scalar BundledNetworks.host[1].udpApp[0] 	"packets sent" 	873
scalar BundledNetworks.host[1].udpApp[0] 	"packets received" 	0
statistic BundledNetworks.host[1].udpApp[0] 	rcvdPkLifetime:stats
field count 0
field mean -nan
field stddev -nan
field sum 0
field sqrsum 0
field min -nan
field max -nan
attr interpolationmode  none
attr source  messageAge(rcvdPk)
attr title  "received packet lifetime, stats"
attr unit  s
scalar BundledNetworks.host[1].udp 	droppedPkBadChecksum:count 	0
attr interpolationmode  none
attr title  "packets dropped (checksum error), count"
scalar BundledNetworks.host[1].udp 	droppedPkWrongPort:count 	0
attr interpolationmode  none
attr title  "packets dropped (wrong port), count"
scalar BundledNetworks.host[1].udp 	passedUpPk:count 	0
attr interpolationmode  none
attr title  "packets passed up, count"
scalar BundledNetworks.host[1].udp 	rcvdPk:count 	0
attr interpolationmode  none
attr source  rcvdPk
attr title  "packets received, count"
scalar BundledNetworks.host[1].udp 	rcvdPk:sum(packetBytes) 	0
attr interpolationmode  none
attr source  rcvdPk
attr title  "packets received, sum(packetBytes)"
scalar BundledNetworks.host[1].udp 	sentPk:count 	873
attr interpolationmode  none
attr source  sentPk
attr title  "packets sent, count"
scalar BundledNetworks.host[1].udp 	sentPk:sum(packetBytes) 	453960
attr interpolationmode  none
attr source  sentPk
attr title  "packets sent, sum(packetBytes)"
statistic BundledNetworks.host[1].aodv 	NumSentAODVPackets
field count 421
field mean 211
field stddev 121.67648362221
field sum 88831
field sqrsum 24961511
field min 1
field max 421
statistic BundledNetworks.host[1].aodv 	NumReceivedAODVPackets
field count 43
field mean 22
field stddev 12.556538801225
field sum 946
field sqrsum 27434
field min 1
field max 43
scalar BundledNetworks.host[1].aodv 	"Number of LinkBreaks" 	1
scalar BundledNetworks.host[1].aodv 	RERRSentNow 	1
scalar BundledNetworks.host[1].aodv 	HelloMsg:count 	0
scalar BundledNetworks.host[2].wlan[0].mac 	"number of received packets" 	507
scalar BundledNetworks.host[2].wlan[0].mac 	"number of collisions" 	1527
scalar BundledNetworks.host[2].wlan[0].mac 	"number of internal collisions" 	0
scalar BundledNetworks.host[2].wlan[0].mac 	"number of retry for AC 0" 	1
scalar BundledNetworks.host[2].wlan[0].mac 	"sent and received bits" 	19968
scalar BundledNetworks.host[2].wlan[0].mac 	"sent packet within AC 0" 	2
scalar BundledNetworks.host[2].wlan[0].mac 	"sent in TXOP " 	0
scalar BundledNetworks.host[2].wlan[0].mac 	"sentWithoutRetry AC 0" 	1
scalar BundledNetworks.host[2].wlan[0].mac 	"numGivenUp AC 0" 	0
scalar BundledNetworks.host[2].wlan[0].mac 	"numDropped AC 0" 	0
scalar BundledNetworks.host[2].wlan[0].radio 	lossRate:min 	0
attr interpolationmode  backward-sample-hold
attr title  "packet loss rate, min"
scalar BundledNetworks.host[2].wlan[0].radio 	lossRate:max 	0.52
attr interpolationmode  backward-sample-hold
attr title  "packet loss rate, max"
scalar BundledNetworks.host[2].wlan[0].radio 	lossRate:timeavg 	0.075054509610084
attr interpolationmode  backward-sample-hold
attr title  "packet loss rate, timeavg"
statistic BundledNetworks.host[2].wlan[0].radio 	channelNo:histogram
field count 1
field mean 0
field stddev -nan
field sum 0
field sqrsum 0
field min 0
field max 0
attr interpolationmode  sample-hold
attr title  "channel no, histogram"
bin	-INF	0
bin	-0.5	0
bin	-0.46666666666667	0
bin	-0.43333333333333	0
bin	-0.4	0
bin	-0.36666666666667	0
bin	-0.33333333333333	0
bin	-0.3	0
bin	-0.26666666666667	0
bin	-0.23333333333333	0
bin	-0.2	0
bin	-0.16666666666667	0
bin	-0.13333333333333	0
bin	-0.1	0
bin	-0.066666666666667	0
bin	-0.033333333333333	0
bin	0	1
bin	0.033333333333333	0
bin	0.066666666666667	0
bin	0.1	0
bin	0.13333333333333	0
bin	0.16666666666667	0
bin	0.2	0
bin	0.23333333333333	0
bin	0.26666666666667	0
bin	0.3	0
bin	0.33333333333333	0
bin	0.36666666666667	0
bin	0.4	0
bin	0.43333333333333	0
bin	0.46666666666667	0
bin	0.5	0
scalar BundledNetworks.host[2].wlan[0].radio 	bitrate:min 	54000000
attr interpolationmode  sample-hold
attr title  "tx bitrate, min"
attr unit  bps
scalar BundledNetworks.host[2].wlan[0].radio 	bitrate:max 	54000000
attr interpolationmode  sample-hold
attr title  "tx bitrate, max"
attr unit  bps
scalar BundledNetworks.host[2].wlan[0].radio 	bitrate:timeavg 	54000000
attr interpolationmode  sample-hold
attr title  "tx bitrate, timeavg"
attr unit  bps
statistic BundledNetworks.host[2].udpApp[0] 	endToEndDelay:histogram
field count 506
field mean 0.00019562358480435
field stddev 0.00065811094107153
field sum 0.098985533911
field sqrsum 0.00023808446042026
field min 0.000142598582
field max 0.010325502466
attr interpolationmode  none
attr source  messageAge(rcvdPk)
attr title  "end-to-end delay, histogram"
attr unit  s
bin	-INF	0
bin	-0.0005730761295	0
bin	-0.0004776316597	0
bin	-0.0003821871899	0
bin	-0.0002867427201	0
bin	-0.0001912982503	0
bin	-9.58537805e-05	0
bin	-4.0931069999995e-07	0
bin	9.50351591e-05	499
bin	0.0001904796289	0
bin	0.0002859240987	0
bin	0.0003813685685	1
bin	0.0004768130383	1
bin	0.0005722575081	0
bin	0.0006677019779	1
bin	0.0007631464477	0
bin	0.0008585909175	0
bin	0.0009540353873	0
bin	0.0010494798571	0
bin	0.0011449243269	0
bin	0.0012403687967	0
bin	0.0013358132665	0
bin	0.0014312577363	0
bin	0.0015267022061	1
bin	0.0016221466759	0
bin	0.0017175911457	0
bin	0.0018130356155	0
bin	0.0019084800853	0
bin	0.0020039245551	0
bin	0.0020993690249	0
bin	0.0021948134947	0
bin	0.0022902579645	3
scalar BundledNetworks.host[2].udp 	droppedPkBadChecksum:count 	0
attr interpolationmode  none
attr title  "packets dropped (checksum error), count"
scalar BundledNetworks.host[2].udp 	droppedPkWrongPort:count 	0
attr interpolationmode  none
attr title  "packets dropped (wrong port), count"
scalar BundledNetworks.host[2].udp 	passedUpPk:count 	506
attr interpolationmode  none
attr title  "packets passed up, count"
scalar BundledNetworks.host[2].udp 	rcvdPk:count 	506
attr interpolationmode  none
attr source  rcvdPk
attr title  "packets received, count"
scalar BundledNetworks.host[2].udp 	rcvdPk:sum(packetBytes) 	263120
attr interpolationmode  none
attr source  rcvdPk
attr title  "packets received, sum(packetBytes)"
scalar BundledNetworks.host[2].udp 	sentPk:count 	0
attr interpolationmode  none
attr source  sentPk
attr title  "packets sent, count"
scalar BundledNetworks.host[2].udp 	sentPk:sum(packetBytes) 	0
attr interpolationmode  none
attr source  sentPk
attr title  "packets sent, sum(packetBytes)"
statistic BundledNetworks.host[2].aodv 	NumSentAODVPackets
field count 341
field mean 171
field stddev 98.582452799674
field sum 58311
field sqrsum 13275471
field min 1
field max 341
statistic BundledNetworks.host[2].aodv 	NumReceivedAODVPackets
field count 38
field mean 19.5
field stddev 11.113055385446
field sum 741
field sqrsum 19019
field min 1
field max 38
scalar BundledNetworks.host[2].aodv 	"Number of LinkBreaks" 	0
scalar BundledNetworks.host[2].aodv 	RERRSentNow 	0
scalar BundledNetworks.host[2].aodv 	HelloMsg:count 	0
scalar BundledNetworks.host[3].wlan[0].mac 	"number of received packets" 	1
scalar BundledNetworks.host[3].wlan[0].mac 	"number of collisions" 	1288
scalar BundledNetworks.host[3].wlan[0].mac 	"number of internal collisions" 	0
scalar BundledNetworks.host[3].wlan[0].mac 	"number of retry for AC 0" 	6
scalar BundledNetworks.host[3].wlan[0].mac 	"sent and received bits" 	2375344
scalar BundledNetworks.host[3].wlan[0].mac 	"sent packet within AC 0" 	506
scalar BundledNetworks.host[3].wlan[0].mac 	"sent in TXOP " 	0
scalar BundledNetworks.host[3].wlan[0].mac 	"sentWithoutRetry AC 0" 	503
scalar BundledNetworks.host[3].wlan[0].mac 	"numGivenUp AC 0" 	0
scalar BundledNetworks.host[3].wlan[0].mac 	"numDropped AC 0" 	0
scalar BundledNetworks.host[3].wlan[0].radio 	lossRate:min 	0
attr interpolationmode  backward-sample-hold
attr title  "packet loss rate, min"
scalar BundledNetworks.host[3].wlan[0].radio 	lossRate:max 	0.46
attr interpolationmode  backward-sample-hold
attr title  "packet loss rate, max"
scalar BundledNetworks.host[3].wlan[0].radio 	lossRate:timeavg 	0.061715354226697
attr interpolationmode  backward-sample-hold
attr title  "packet loss rate, timeavg"
statistic BundledNetworks.host[3].wlan[0].radio 	channelNo:histogram
field count 1
field mean 0
field stddev -nan
field sum 0
field sqrsum 0
field min 0
field max 0
attr interpolationmode  sample-hold
attr title  "channel no, histogram"
bin	-INF	0
bin	-0.5	0
bin	-0.46666666666667	0
bin	-0.43333333333333	0
bin	-0.4	0
bin	-0.36666666666667	0
bin	-0.33333333333333	0
bin	-0.3	0
bin	-0.26666666666667	0
bin	-0.23333333333333	0
bin	-0.2	0
bin	-0.16666666666667	0
bin	-0.13333333333333	0
bin	-0.1	0
bin	-0.066666666666667	0
bin	-0.033333333333333	0
bin	0	1
bin	0.033333333333333	0
bin	0.066666666666667	0
bin	0.1	0
bin	0.13333333333333	0
bin	0.16666666666667	0
bin	0.2	0
bin	0.23333333333333	0
bin	0.26666666666667	0
bin	0.3	0
bin	0.33333333333333	0
bin	0.36666666666667	0
bin	0.4	0
bin	0.43333333333333	0
bin	0.46666666666667	0
bin	0.5	0
scalar BundledNetworks.host[3].wlan[0].radio 	bitrate:min 	54000000
attr interpolationmode  sample-hold
attr title  "tx bitrate, min"
attr unit  bps
scalar BundledNetworks.host[3].wlan[0].radio 	bitrate:max 	54000000
attr interpolationmode  sample-hold
attr title  "tx bitrate, max"
attr unit  bps
scalar BundledNetworks.host[3].wlan[0].radio 	bitrate:timeavg 	54000000
attr interpolationmode  sample-hold
attr title  "tx bitrate, timeavg"
attr unit  bps
scalar BundledNetworks.host[3].udpApp[0] 	"packets sent" 	890
scalar BundledNetworks.host[3].udpApp[0] 	"packets received" 	0
statistic BundledNetworks.host[3].udpApp[0] 	rcvdPkLifetime:stats
field count 0
field mean -nan
field stddev -nan
field sum 0
field sqrsum 0
field min -nan
field max -nan
attr interpolationmode  none
attr source  messageAge(rcvdPk)
attr title  "received packet lifetime, stats"
attr unit  s
scalar BundledNetworks.host[3].udp 	droppedPkBadChecksum:count 	0
attr interpolationmode  none
attr title  "packets dropped (checksum error), count"
scalar BundledNetworks.host[3].udp 	droppedPkWrongPort:count 	0
attr interpolationmode  none
attr title  "packets dropped (wrong port), count"
scalar BundledNetworks.host[3].udp 	passedUpPk:count 	0
attr interpolationmode  none
attr title  "packets passed up, count"
scalar BundledNetworks.host[3].udp 	rcvdPk:count 	0
attr interpolationmode  none
attr source  rcvdPk
attr title  "packets received, count"
scalar BundledNetworks.host[3].udp 	rcvdPk:sum(packetBytes) 	0
attr interpolationmode  none
attr source  rcvdPk
attr title  "packets received, sum(packetBytes)"
scalar BundledNetworks.host[3].udp 	sentPk:count 	890
attr interpolationmode  none
attr source  sentPk
attr title  "packets sent, count"
scalar BundledNetworks.host[3].udp 	sentPk:sum(packetBytes) 	462800
attr interpolationmode  none
attr source  sentPk
attr title  "packets sent, sum(packetBytes)"
statistic BundledNetworks.host[3].aodv 	NumSentAODVPackets
field count 428
field mean 214.5
field stddev 123.6972109629
field sum 91806
field sqrsum 26225914
field min 1
field max 428
statistic BundledNetworks.host[3].aodv 	NumReceivedAODVPackets
field count 38
field mean 19.5
field stddev 11.113055385446
field sum 741
field sqrsum 19019
field min 1
field max 38
scalar BundledNetworks.host[3].aodv 	"Number of LinkBreaks" 	0
scalar BundledNetworks.host[3].aodv 	RERRSentNow 	0
scalar BundledNetworks.host[3].aodv 	HelloMsg:count 	0
scalar BundledNetworks.host[4].wlan[0].mac 	"number of received packets" 	1217
scalar BundledNetworks.host[4].wlan[0].mac 	"number of collisions" 	321
scalar BundledNetworks.host[4].wlan[0].mac 	"number of internal collisions" 	0
scalar BundledNetworks.host[4].wlan[0].mac 	"number of retry for AC 0" 	92
scalar BundledNetworks.host[4].wlan[0].mac 	"sent and received bits" 	1674720
scalar BundledNetworks.host[4].wlan[0].mac 	"sent packet within AC 0" 	363
scalar BundledNetworks.host[4].wlan[0].mac 	"sent in TXOP " 	0
scalar BundledNetworks.host[4].wlan[0].mac 	"sentWithoutRetry AC 0" 	315
scalar BundledNetworks.host[4].wlan[0].mac 	"numGivenUp AC 0" 	1
scalar BundledNetworks.host[4].wlan[0].mac 	"numDropped AC 0" 	0
scalar BundledNetworks.host[4].wlan[0].radio 	lossRate:min 	0
attr interpolationmode  backward-sample-hold
attr title  "packet loss rate, min"
scalar BundledNetworks.host[4].wlan[0].radio 	lossRate:max 	0.4
attr interpolationmode  backward-sample-hold
attr title  "packet loss rate, max"
scalar BundledNetworks.host[4].wlan[0].radio 	lossRate:timeavg 	0.055417168924439
attr interpolationmode  backward-sample-hold
attr title  "packet loss rate, timeavg"
statistic BundledNetworks.host[4].wlan[0].radio 	channelNo:histogram
field count 1
field mean 0
field stddev -nan
field sum 0
field sqrsum 0
field min 0
field max 0
attr interpolationmode  sample-hold
attr title  "channel no, histogram"
bin	-INF	0
bin	-0.5	0
bin	-0.46666666666667	0
bin	-0.43333333333333	0
bin	-0.4	0
bin	-0.36666666666667	0
bin	-0.33333333333333	0
bin	-0.3	0
bin	-0.26666666666667	0
bin	-0.23333333333333	0
bin	-0.2	0
bin	-0.16666666666667	0
bin	-0.13333333333333	0
bin	-0.1	0
bin	-0.066666666666667	0
bin	-0.033333333333333	0
bin	0	1
bin	0.033333333333333	0
bin	0.066666666666667	0
bin	0.1	0
bin	0.13333333333333	0
bin	0.16666666666667	0
bin	0.2	0
bin	0.23333333333333	0
bin	0.26666666666667	0
bin	0.3	0
bin	0.33333333333333	0
bin	0.36666666666667	0
bin	0.4	0
bin	0.43333333333333	0
bin	0.46666666666667	0
bin	0.5	0
scalar BundledNetworks.host[4].wlan[0].radio 	bitrate:min 	54000000
attr interpolationmode  sample-hold
attr title  "tx bitrate, min"
attr unit  bps
scalar BundledNetworks.host[4].wlan[0].radio 	bitrate:max 	54000000
attr interpolationmode  sample-hold
attr title  "tx bitrate, max"
attr unit  bps
scalar BundledNetworks.host[4].wlan[0].radio 	bitrate:timeavg 	54000000
attr interpolationmode  sample-hold
attr title  "tx bitrate, timeavg"
attr unit  bps
statistic BundledNetworks.host[4].udpApp[0] 	endToEndDelay:histogram
field count 852
field mean 0.00040491023427934
field stddev 0.0018580233112319
field sum 0.344983519606
field sqrsum 0.0030775526396902
field min 0.000142283569
field max 0.037175995178
attr interpolationmode  none
attr source  messageAge(rcvdPk)
attr title  "end-to-end delay, histogram"
attr unit  s
bin	-INF	0
bin	-0.018374199955	0
bin	-0.015905302393533	0
bin	-0.013436404832067	0
bin	-0.0109675072706	0
bin	-0.0084986097091333	0
bin	-0.0060297121476667	0
bin	-0.0035608145862	0
bin	-0.0010919170247333	812
bin	0.0013769805367333	28
bin	0.0038458780982	6
bin	0.0063147756596667	0
bin	0.0087836732211333	1
bin	0.0112525707826	1
bin	0.013721468344067	1
bin	0.016190365905533	1
bin	0.018659263467	0
bin	0.021128161028467	0
bin	0.023597058589933	1
bin	0.0260659561514	0
bin	0.028534853712867	0
bin	0.031003751274333	0
bin	0.0334726488358	0
bin	0.035941546397267	1
bin	0.038410443958733	0
bin	0.0408793415202	0
bin	0.043348239081667	0
bin	0.045817136643133	0
bin	0.0482860342046	0
bin	0.050754931766067	0
bin	0.053223829327533	0
bin	0.055692726889	0
scalar BundledNetworks.host[4].udp 	droppedPkBadChecksum:count 	0
attr interpolationmode  none
attr title  "packets dropped (checksum error), count"
scalar BundledNetworks.host[4].udp 	droppedPkWrongPort:count 	0
attr interpolationmode  none
attr title  "packets dropped (wrong port), count"
scalar BundledNetworks.host[4].udp 	passedUpPk:count 	852
attr interpolationmode  none
attr title  "packets passed up, count"
scalar BundledNetworks.host[4].udp 	rcvdPk:count 	852
attr interpolationmode  none
attr source  rcvdPk
attr title  "packets received, count"
scalar BundledNetworks.host[4].udp 	rcvdPk:sum(packetBytes) 	443040
attr interpolationmode  none
attr source  rcvdPk
attr title  "packets received, sum(packetBytes)"
scalar BundledNetworks.host[4].udp 	sentPk:count 	0
attr interpolationmode  none
attr source  sentPk
attr title  "packets sent, count"
scalar BundledNetworks.host[4].udp 	sentPk:sum(packetBytes) 	0
attr interpolationmode  none
attr source  sentPk
attr title  "packets sent, sum(packetBytes)"
statistic BundledNetworks.host[4].aodv 	NumSentAODVPackets
field count 298
field mean 149.5
field stddev 86.169406790732
field sum 44551
field sqrsum 8865649
field min 1
field max 298
statistic BundledNetworks.host[4].aodv 	NumReceivedAODVPackets
field count 29
field mean 15
field stddev 8.5146931829632
field sum 435
field sqrsum 8555
field min 1
field max 29
scalar BundledNetworks.host[4].aodv 	"Number of LinkBreaks" 	1
scalar BundledNetworks.host[4].aodv 	RERRSentNow 	1
scalar BundledNetworks.host[4].aodv 	HelloMsg:count 	0
scalar BundledNetworks.host[5].wlan[0].mac 	"number of received packets" 	1
scalar BundledNetworks.host[5].wlan[0].mac 	"number of collisions" 	267
scalar BundledNetworks.host[5].wlan[0].mac 	"number of internal collisions" 	0
scalar BundledNetworks.host[5].wlan[0].mac 	"number of retry for AC 0" 	140
scalar BundledNetworks.host[5].wlan[0].mac 	"sent and received bits" 	3980368
scalar BundledNetworks.host[5].wlan[0].mac 	"sent packet within AC 0" 	852
scalar BundledNetworks.host[5].wlan[0].mac 	"sent in TXOP " 	0
scalar BundledNetworks.host[5].wlan[0].mac 	"sentWithoutRetry AC 0" 	786
scalar BundledNetworks.host[5].wlan[0].mac 	"numGivenUp AC 0" 	1
scalar BundledNetworks.host[5].wlan[0].mac 	"numDropped AC 0" 	0
scalar BundledNetworks.host[5].wlan[0].radio 	lossRate:min 	0
attr interpolationmode  backward-sample-hold
attr title  "packet loss rate, min"
scalar BundledNetworks.host[5].wlan[0].radio 	lossRate:max 	0.36
attr interpolationmode  backward-sample-hold
attr title  "packet loss rate, max"
scalar BundledNetworks.host[5].wlan[0].radio 	lossRate:timeavg 	0.043236434979602
attr interpolationmode  backward-sample-hold
attr title  "packet loss rate, timeavg"
statistic BundledNetworks.host[5].wlan[0].radio 	channelNo:histogram
field count 1
field mean 0
field stddev -nan
field sum 0
field sqrsum 0
field min 0
field max 0
attr interpolationmode  sample-hold
attr title  "channel no, histogram"
bin	-INF	0
bin	-0.5	0
bin	-0.46666666666667	0
bin	-0.43333333333333	0
bin	-0.4	0
bin	-0.36666666666667	0
bin	-0.33333333333333	0
bin	-0.3	0
bin	-0.26666666666667	0
bin	-0.23333333333333	0
bin	-0.2	0
bin	-0.16666666666667	0
bin	-0.13333333333333	0
bin	-0.1	0
bin	-0.066666666666667	0
bin	-0.033333333333333	0
bin	0	1
bin	0.033333333333333	0
bin	0.066666666666667	0
bin	0.1	0
bin	0.13333333333333	0
bin	0.16666666666667	0
bin	0.2	0
bin	0.23333333333333	0
bin	0.26666666666667	0
bin	0.3	0
bin	0.33333333333333	0
bin	0.36666666666667	0
bin	0.4	0
bin	0.43333333333333	0
bin	0.46666666666667	0
bin	0.5	0
scalar BundledNetworks.host[5].wlan[0].radio 	bitrate:min 	54000000
attr interpolationmode  sample-hold
attr title  "tx bitrate, min"
attr unit  bps
scalar BundledNetworks.host[5].wlan[0].radio 	bitrate:max 	54000000
attr interpolationmode  sample-hold
attr title  "tx bitrate, max"
attr unit  bps
scalar BundledNetworks.host[5].wlan[0].radio 	bitrate:timeavg 	54000000
attr interpolationmode  sample-hold
attr title  "tx bitrate, timeavg"
attr unit  bps
scalar BundledNetworks.host[5].udpApp[0] 	"packets sent" 	871
scalar BundledNetworks.host[5].udpApp[0] 	"packets received" 	0
statistic BundledNetworks.host[5].udpApp[0] 	rcvdPkLifetime:stats
field count 0
field mean -nan
field stddev -nan
field sum 0
field sqrsum 0
field min -nan
field max -nan
attr interpolationmode  none
attr source  messageAge(rcvdPk)
attr title  "received packet lifetime, stats"
attr unit  s
scalar BundledNetworks.host[5].udp 	droppedPkBadChecksum:count 	0
attr interpolationmode  none
attr title  "packets dropped (checksum error), count"
scalar BundledNetworks.host[5].udp 	droppedPkWrongPort:count 	0
attr interpolationmode  none
attr title  "packets dropped (wrong port), count"
scalar BundledNetworks.host[5].udp 	passedUpPk:count 	0
attr interpolationmode  none
attr title  "packets passed up, count"
scalar BundledNetworks.host[5].udp 	rcvdPk:count 	0
attr interpolationmode  none
attr source  rcvdPk
attr title  "packets received, count"
scalar BundledNetworks.host[5].udp 	rcvdPk:sum(packetBytes) 	0
attr interpolationmode  none
attr source  rcvdPk
attr title  "packets received, sum(packetBytes)"
scalar BundledNetworks.host[5].udp 	sentPk:count 	871
attr interpolationmode  none
attr source  sentPk
attr title  "packets sent, count"
scalar BundledNetworks.host[5].udp 	sentPk:sum(packetBytes) 	452920
attr interpolationmode  none
attr source  sentPk
attr title  "packets sent, sum(packetBytes)"
statistic BundledNetworks.host[5].aodv 	NumSentAODVPackets
field count 296
field mean 148.5
field stddev 85.592055706123
field sum 43956
field sqrsum 8688636
field min 1
field max 296
statistic BundledNetworks.host[5].aodv 	NumReceivedAODVPackets
field count 26
field mean 13.5
field stddev 7.6485292703892
field sum 351
field sqrsum 6201
field min 1
field max 26
scalar BundledNetworks.host[5].aodv 	"Number of LinkBreaks" 	1
scalar BundledNetworks.host[5].aodv 	RERRSentNow 	1
scalar BundledNetworks.host[5].aodv 	HelloMsg:count 	0
scalar BundledNetworks.host[6].wlan[0].mac 	"number of received packets" 	1089
scalar BundledNetworks.host[6].wlan[0].mac 	"number of collisions" 	1425
scalar BundledNetworks.host[6].wlan[0].mac 	"number of internal collisions" 	0
scalar BundledNetworks.host[6].wlan[0].mac 	"number of retry for AC 0" 	15
scalar BundledNetworks.host[6].wlan[0].mac 	"sent and received bits" 	742720
scalar BundledNetworks.host[6].wlan[0].mac 	"sent packet within AC 0" 	166
scalar BundledNetworks.host[6].wlan[0].mac 	"sent in TXOP " 	0
scalar BundledNetworks.host[6].wlan[0].mac 	"sentWithoutRetry AC 0" 	160
scalar BundledNetworks.host[6].wlan[0].mac 	"numGivenUp AC 0" 	0
scalar BundledNetworks.host[6].wlan[0].mac 	"numDropped AC 0" 	0
scalar BundledNetworks.host[6].wlan[0].radio 	lossRate:min 	0
attr interpolationmode  backward-sample-hold
attr title  "packet loss rate, min"
scalar BundledNetworks.host[6].wlan[0].radio 	lossRate:max 	0.38
attr interpolationmode  backward-sample-hold
attr title  "packet loss rate, max"
scalar BundledNetworks.host[6].wlan[0].radio 	lossRate:timeavg 	0.079087099677975
attr interpolationmode  backward-sample-hold
attr title  "packet loss rate, timeavg"
statistic BundledNetworks.host[6].wlan[0].radio 	channelNo:histogram
field count 1
field mean 0
field stddev -nan
field sum 0
field sqrsum 0
field min 0
field max 0
attr interpolationmode  sample-hold
attr title  "channel no, histogram"
bin	-INF	0
bin	-0.5	0
bin	-0.46666666666667	0
bin	-0.43333333333333	0
bin	-0.4	0
bin	-0.36666666666667	0
bin	-0.33333333333333	0
bin	-0.3	0
bin	-0.26666666666667	0
bin	-0.23333333333333	0
bin	-0.2	0
bin	-0.16666666666667	0
bin	-0.13333333333333	0
bin	-0.1	0
bin	-0.066666666666667	0
bin	-0.033333333333333	0
bin	0	1
bin	0.033333333333333	0
bin	0.066666666666667	0
bin	0.1	0
bin	0.13333333333333	0
bin	0.16666666666667	0
bin	0.2	0
bin	0.23333333333333	0
bin	0.26666666666667	0
bin	0.3	0
bin	0.33333333333333	0
bin	0.36666666666667	0
bin	0.4	0
bin	0.43333333333333	0
bin	0.46666666666667	0
bin	0.5	0
scalar BundledNetworks.host[6].wlan[0].radio 	bitrate:min 	54000000
attr interpolationmode  sample-hold
attr title  "tx bitrate, min"
attr unit  bps
scalar BundledNetworks.host[6].wlan[0].radio 	bitrate:max 	54000000
attr interpolationmode  sample-hold
attr title  "tx bitrate, max"
attr unit  bps
scalar BundledNetworks.host[6].wlan[0].radio 	bitrate:timeavg 	54000000
attr interpolationmode  sample-hold
attr title  "tx bitrate, timeavg"
attr unit  bps
statistic BundledNetworks.host[6].udpApp[0] 	endToEndDelay:histogram
field count 925
field mean 0.021391987450678
field stddev 0.12897602156002
field sum 19.787588391877
field sqrsum 15.793864105563
field min 0.000599144869
field max 1.48394821683
attr interpolationmode  none
attr source  messageAge(rcvdPk)
attr title  "end-to-end delay, histogram"
attr unit  s
bin	-INF	0
bin	-0.7410753097845	0
bin	-0.6421853752683	0
bin	-0.5432954407521	0
bin	-0.4444055062359	0
bin	-0.3455155717197	0
bin	-0.2466256372035	0
bin	-0.1477357026873	0
bin	-0.0488457681711	889
bin	0.0500441663451	5
bin	0.1489341008613	5
bin	0.2478240353775	5
bin	0.3467139698937	5
bin	0.4456039044099	2
bin	0.5444938389261	2
bin	0.6433837734423	2
bin	0.7422737079585	2
bin	0.8411636424747	2
bin	0.9400535769909	1
bin	1.0389435115071	1
bin	1.1378334460233	1
bin	1.2367233805395	1
bin	1.3356133150557	1
bin	1.4345032495719	1
bin	1.5333931840881	0
bin	1.6322831186043	0
bin	1.7311730531205	0
bin	1.8300629876367	0
bin	1.9289529221529	0
bin	2.0278428566691	0
bin	2.1267327911853	0
bin	2.2256227257015	0
scalar BundledNetworks.host[6].udp 	droppedPkBadChecksum:count 	0
attr interpolationmode  none
attr title  "packets dropped (checksum error), count"
scalar BundledNetworks.host[6].udp 	droppedPkWrongPort:count 	0
attr interpolationmode  none
attr title  "packets dropped (wrong port), count"
scalar BundledNetworks.host[6].udp 	passedUpPk:count 	925
attr interpolationmode  none
attr title  "packets passed up, count"
scalar BundledNetworks.host[6].udp 	rcvdPk:count 	925
attr interpolationmode  none
attr source  rcvdPk
attr title  "packets received, count"
scalar BundledNetworks.host[6].udp 	rcvdPk:sum(packetBytes) 	481000
attr interpolationmode  none
attr source  rcvdPk
attr title  "packets received, sum(packetBytes)"
scalar BundledNetworks.host[6].udp 	sentPk:count 	0
attr interpolationmode  none
attr source  sentPk
attr title  "packets sent, count"
scalar BundledNetworks.host[6].udp 	sentPk:sum(packetBytes) 	0
attr interpolationmode  none
attr source  sentPk
attr title  "packets sent, sum(packetBytes)"
statistic BundledNetworks.host[6].aodv 	NumSentAODVPackets
field count 421
field mean 211
field stddev 121.67648362221
field sum 88831
field sqrsum 24961511
field min 1
field max 421
statistic BundledNetworks.host[6].aodv 	NumReceivedAODVPackets
field count 37
field mean 19
field stddev 10.824355254086
field sum 703
field sqrsum 17575
field min 1
field max 37
scalar BundledNetworks.host[6].aodv 	"Number of LinkBreaks" 	0
scalar BundledNetworks.host[6].aodv 	RERRSentNow 	0
scalar BundledNetworks.host[6].aodv 	HelloMsg:count 	0
scalar BundledNetworks.host[7].wlan[0].mac 	"number of received packets" 	182
scalar BundledNetworks.host[7].wlan[0].mac 	"number of collisions" 	1774
scalar BundledNetworks.host[7].wlan[0].mac 	"number of internal collisions" 	0
scalar BundledNetworks.host[7].wlan[0].mac 	"number of retry for AC 0" 	89
scalar BundledNetworks.host[7].wlan[0].mac 	"sent and received bits" 	5138592
scalar BundledNetworks.host[7].wlan[0].mac 	"sent packet within AC 0" 	1108
scalar BundledNetworks.host[7].wlan[0].mac 	"sent in TXOP " 	0
scalar BundledNetworks.host[7].wlan[0].mac 	"sentWithoutRetry AC 0" 	1080
scalar BundledNetworks.host[7].wlan[0].mac 	"numGivenUp AC 0" 	4
scalar BundledNetworks.host[7].wlan[0].mac 	"numDropped AC 0" 	0
scalar BundledNetworks.host[7].wlan[0].radio 	lossRate:min 	0
attr interpolationmode  backward-sample-hold
attr title  "packet loss rate, min"
scalar BundledNetworks.host[7].wlan[0].radio 	lossRate:max 	0.48
attr interpolationmode  backward-sample-hold
attr title  "packet loss rate, max"
scalar BundledNetworks.host[7].wlan[0].radio 	lossRate:timeavg 	0.11629525037751
attr interpolationmode  backward-sample-hold
attr title  "packet loss rate, timeavg"
statistic BundledNetworks.host[7].wlan[0].radio 	channelNo:histogram
field count 1
field mean 0
field stddev -nan
field sum 0
field sqrsum 0
field min 0
field max 0
attr interpolationmode  sample-hold
attr title  "channel no, histogram"
bin	-INF	0
bin	-0.5	0
bin	-0.46666666666667	0
bin	-0.43333333333333	0
bin	-0.4	0
bin	-0.36666666666667	0
bin	-0.33333333333333	0
bin	-0.3	0
bin	-0.26666666666667	0
bin	-0.23333333333333	0
bin	-0.2	0
bin	-0.16666666666667	0
bin	-0.13333333333333	0
bin	-0.1	0
bin	-0.066666666666667	0
bin	-0.033333333333333	0
bin	0	1
bin	0.033333333333333	0
bin	0.066666666666667	0
bin	0.1	0
bin	0.13333333333333	0
bin	0.16666666666667	0
bin	0.2	0
bin	0.23333333333333	0
bin	0.26666666666667	0
bin	0.3	0
bin	0.33333333333333	0
bin	0.36666666666667	0
bin	0.4	0
bin	0.43333333333333	0
bin	0.46666666666667	0
bin	0.5	0
scalar BundledNetworks.host[7].wlan[0].radio 	bitrate:min 	54000000
attr interpolationmode  sample-hold
attr title  "tx bitrate, min"
attr unit  bps
scalar BundledNetworks.host[7].wlan[0].radio 	bitrate:max 	54000000
attr interpolationmode  sample-hold
attr title  "tx bitrate, max"
attr unit  bps
scalar BundledNetworks.host[7].wlan[0].radio 	bitrate:timeavg 	54000000
attr interpolationmode  sample-hold
attr title  "tx bitrate, timeavg"
attr unit  bps
scalar BundledNetworks.host[7].udpApp[0] 	"packets sent" 	930
scalar BundledNetworks.host[7].udpApp[0] 	"packets received" 	0
statistic BundledNetworks.host[7].udpApp[0] 	rcvdPkLifetime:stats
field count 0
field mean -nan
field stddev -nan
field sum 0
field sqrsum 0
field min -nan
field max -nan
attr interpolationmode  none
attr source  messageAge(rcvdPk)
attr title  "received packet lifetime, stats"
attr unit  s
scalar BundledNetworks.host[7].udp 	droppedPkBadChecksum:count 	0
attr interpolationmode  none
attr title  "packets dropped (checksum error), count"
scalar BundledNetworks.host[7].udp 	droppedPkWrongPort:count 	0
attr interpolationmode  none
attr title  "packets dropped (wrong port), count"
scalar BundledNetworks.host[7].udp 	passedUpPk:count 	0
attr interpolationmode  none
attr title  "packets passed up, count"
scalar BundledNetworks.host[7].udp 	rcvdPk:count 	0
attr interpolationmode  none
attr source  rcvdPk
attr title  "packets received, count"
scalar BundledNetworks.host[7].udp 	rcvdPk:sum(packetBytes) 	0
attr interpolationmode  none
attr source  rcvdPk
attr title  "packets received, sum(packetBytes)"
scalar BundledNetworks.host[7].udp 	sentPk:count 	930
attr interpolationmode  none
attr source  sentPk
attr title  "packets sent, count"
scalar BundledNetworks.host[7].udp 	sentPk:sum(packetBytes) 	483600
attr interpolationmode  none
attr source  sentPk
attr title  "packets sent, sum(packetBytes)"
statistic BundledNetworks.host[7].aodv 	NumSentAODVPackets
field count 357
field mean 179
field stddev 103.20125968223
field sum 63903
field sqrsum 15230215
field min 1
field max 357
statistic BundledNetworks.host[7].aodv 	NumReceivedAODVPackets
field count 50
field mean 25.5
field stddev 14.577379737113
field sum 1275
field sqrsum 42925
field min 1
field max 50
scalar BundledNetworks.host[7].aodv 	"Number of LinkBreaks" 	4
scalar BundledNetworks.host[7].aodv 	RERRSentNow 	4
scalar BundledNetworks.host[7].aodv 	HelloMsg:count 	0
scalar BundledNetworks.host[8].wlan[0].mac 	"number of received packets" 	31
scalar BundledNetworks.host[8].wlan[0].mac 	"number of collisions" 	798
scalar BundledNetworks.host[8].wlan[0].mac 	"number of internal collisions" 	0
scalar BundledNetworks.host[8].wlan[0].mac 	"number of retry for AC 0" 	0
scalar BundledNetworks.host[8].wlan[0].mac 	"sent and received bits" 	15008
scalar BundledNetworks.host[8].wlan[0].mac 	"sent packet within AC 0" 	2
scalar BundledNetworks.host[8].wlan[0].mac 	"sent in TXOP " 	0
scalar BundledNetworks.host[8].wlan[0].mac 	"sentWithoutRetry AC 0" 	2
scalar BundledNetworks.host[8].wlan[0].mac 	"numGivenUp AC 0" 	0
scalar BundledNetworks.host[8].wlan[0].mac 	"numDropped AC 0" 	0
scalar BundledNetworks.host[8].wlan[0].radio 	lossRate:min 	0
attr interpolationmode  backward-sample-hold
attr title  "packet loss rate, min"
scalar BundledNetworks.host[8].wlan[0].radio 	lossRate:max 	0.26
attr interpolationmode  backward-sample-hold
attr title  "packet loss rate, max"
scalar BundledNetworks.host[8].wlan[0].radio 	lossRate:timeavg 	0.05059220920929
attr interpolationmode  backward-sample-hold
attr title  "packet loss rate, timeavg"
statistic BundledNetworks.host[8].wlan[0].radio 	channelNo:histogram
field count 1
field mean 0
field stddev -nan
field sum 0
field sqrsum 0
field min 0
field max 0
attr interpolationmode  sample-hold
attr title  "channel no, histogram"
bin	-INF	0
bin	-0.5	0
bin	-0.46666666666667	0
bin	-0.43333333333333	0
bin	-0.4	0
bin	-0.36666666666667	0
bin	-0.33333333333333	0
bin	-0.3	0
bin	-0.26666666666667	0
bin	-0.23333333333333	0
bin	-0.2	0
bin	-0.16666666666667	0
bin	-0.13333333333333	0
bin	-0.1	0
bin	-0.066666666666667	0
bin	-0.033333333333333	0
bin	0	1
bin	0.033333333333333	0
bin	0.066666666666667	0
bin	0.1	0
bin	0.13333333333333	0
bin	0.16666666666667	0
bin	0.2	0
bin	0.23333333333333	0
bin	0.26666666666667	0
bin	0.3	0
bin	0.33333333333333	0
bin	0.36666666666667	0
bin	0.4	0
bin	0.43333333333333	0
bin	0.46666666666667	0
bin	0.5	0
scalar BundledNetworks.host[8].wlan[0].radio 	bitrate:min 	54000000
attr interpolationmode  sample-hold
attr title  "tx bitrate, min"
attr unit  bps
scalar BundledNetworks.host[8].wlan[0].radio 	bitrate:max 	54000000
attr interpolationmode  sample-hold
attr title  "tx bitrate, max"
attr unit  bps
scalar BundledNetworks.host[8].wlan[0].radio 	bitrate:timeavg 	54000000
attr interpolationmode  sample-hold
attr title  "tx bitrate, timeavg"
attr unit  bps
statistic BundledNetworks.host[8].udpApp[0] 	endToEndDelay:histogram
field count 29
field mean 0.14443157485693
field stddev 0.25824652090117
field sum 4.188515670851
field sqrsum 2.4723093502656
field min 0.001512563364
field max 0.844773564982
attr interpolationmode  none
attr source  messageAge(rcvdPk)
attr title  "end-to-end delay, histogram"
attr unit  s
bin	-INF	0
bin	-0.420117937445	0
bin	-0.36390053733713	0
bin	-0.30768313722927	0
bin	-0.2514657371214	0
bin	-0.19524833701353	0
bin	-0.13903093690567	0
bin	-0.0828135367978	0
bin	-0.026596136689933	20
bin	0.029621263417933	1
bin	0.0858386635258	0
bin	0.14205606363367	1
bin	0.19827346374153	0
bin	0.2544908638494	1
bin	0.31070826395727	0
bin	0.36692566406513	1
bin	0.423143064173	1
bin	0.47936046428087	0
bin	0.53557786438873	1
bin	0.5917952644966	0
bin	0.64801266460447	1
bin	0.70423006471233	1
bin	0.7604474648202	0
bin	0.81666486492807	1
bin	0.87288226503593	0
bin	0.9290996651438	0
bin	0.98531706525167	0
bin	1.0415344653595	0
bin	1.0977518654674	0
bin	1.1539692655753	0
bin	1.2101866656831	0
bin	1.266404065791	0
scalar BundledNetworks.host[8].udp 	droppedPkBadChecksum:count 	0
attr interpolationmode  none
attr title  "packets dropped (checksum error), count"
scalar BundledNetworks.host[8].udp 	droppedPkWrongPort:count 	0
attr interpolationmode  none
attr title  "packets dropped (wrong port), count"
scalar BundledNetworks.host[8].udp 	passedUpPk:count 	29
attr interpolationmode  none
attr title  "packets passed up, count"
scalar BundledNetworks.host[8].udp 	rcvdPk:count 	29
attr interpolationmode  none
attr source  rcvdPk
attr title  "packets received, count"
scalar BundledNetworks.host[8].udp 	rcvdPk:sum(packetBytes) 	15080
attr interpolationmode  none
attr source  rcvdPk
attr title  "packets received, sum(packetBytes)"
scalar BundledNetworks.host[8].udp 	sentPk:count 	0
attr interpolationmode  none
attr source  sentPk
attr title  "packets sent, count"
scalar BundledNetworks.host[8].udp 	sentPk:sum(packetBytes) 	0
attr interpolationmode  none
attr source  sentPk
attr title  "packets sent, sum(packetBytes)"
statistic BundledNetworks.host[8].aodv 	NumSentAODVPackets
field count 369
field mean 185
field stddev 106.66536457539
field sum 68265
field sqrsum 16815945
field min 1
field max 369
statistic BundledNetworks.host[8].aodv 	NumReceivedAODVPackets
field count 28
field mean 14.5
field stddev 8.225975119502
field sum 406
field sqrsum 7714
field min 1
field max 28
scalar BundledNetworks.host[8].aodv 	"Number of LinkBreaks" 	0
scalar BundledNetworks.host[8].aodv 	RERRSentNow 	0
scalar BundledNetworks.host[8].aodv 	HelloMsg:count 	0
scalar BundledNetworks.host[9].wlan[0].mac 	"number of received packets" 	1
scalar BundledNetworks.host[9].wlan[0].mac 	"number of collisions" 	1973
scalar BundledNetworks.host[9].wlan[0].mac 	"number of internal collisions" 	0
scalar BundledNetworks.host[9].wlan[0].mac 	"number of retry for AC 0" 	23
scalar BundledNetworks.host[9].wlan[0].mac 	"sent and received bits" 	155984
scalar BundledNetworks.host[9].wlan[0].mac 	"sent packet within AC 0" 	31
scalar BundledNetworks.host[9].wlan[0].mac 	"sent in TXOP " 	0
scalar BundledNetworks.host[9].wlan[0].mac 	"sentWithoutRetry AC 0" 	23
scalar BundledNetworks.host[9].wlan[0].mac 	"numGivenUp AC 0" 	1
scalar BundledNetworks.host[9].wlan[0].mac 	"numDropped AC 0" 	0
scalar BundledNetworks.host[9].wlan[0].radio 	lossRate:min 	0
attr interpolationmode  backward-sample-hold
attr title  "packet loss rate, min"
scalar BundledNetworks.host[9].wlan[0].radio 	lossRate:max 	0.46
attr interpolationmode  backward-sample-hold
attr title  "packet loss rate, max"
scalar BundledNetworks.host[9].wlan[0].radio 	lossRate:timeavg 	0.13241244675795
attr interpolationmode  backward-sample-hold
attr title  "packet loss rate, timeavg"
statistic BundledNetworks.host[9].wlan[0].radio 	channelNo:histogram
field count 1
field mean 0
field stddev -nan
field sum 0
field sqrsum 0
field min 0
field max 0
attr interpolationmode  sample-hold
attr title  "channel no, histogram"
bin	-INF	0
bin	-0.5	0
bin	-0.46666666666667	0
bin	-0.43333333333333	0
bin	-0.4	0
bin	-0.36666666666667	0
bin	-0.33333333333333	0
bin	-0.3	0
bin	-0.26666666666667	0
bin	-0.23333333333333	0
bin	-0.2	0
bin	-0.16666666666667	0
bin	-0.13333333333333	0
bin	-0.1	0
bin	-0.066666666666667	0
bin	-0.033333333333333	0
bin	0	1
bin	0.033333333333333	0
bin	0.066666666666667	0
bin	0.1	0
bin	0.13333333333333	0
bin	0.16666666666667	0
bin	0.2	0
bin	0.23333333333333	0
bin	0.26666666666667	0
bin	0.3	0
bin	0.33333333333333	0
bin	0.36666666666667	0
bin	0.4	0
bin	0.43333333333333	0
bin	0.46666666666667	0
bin	0.5	0
scalar BundledNetworks.host[9].wlan[0].radio 	bitrate:min 	54000000
attr interpolationmode  sample-hold
attr title  "tx bitrate, min"
attr unit  bps
scalar BundledNetworks.host[9].wlan[0].radio 	bitrate:max 	54000000
attr interpolationmode  sample-hold
attr title  "tx bitrate, max"
attr unit  bps
scalar BundledNetworks.host[9].wlan[0].radio 	bitrate:timeavg 	54000000
attr interpolationmode  sample-hold
attr title  "tx bitrate, timeavg"
attr unit  bps
scalar BundledNetworks.host[9].udpApp[0] 	"packets sent" 	866
scalar BundledNetworks.host[9].udpApp[0] 	"packets received" 	0
statistic BundledNetworks.host[9].udpApp[0] 	rcvdPkLifetime:stats
field count 0
field mean -nan
field stddev -nan
field sum 0
field sqrsum 0
field min -nan
field max -nan
attr interpolationmode  none
attr source  messageAge(rcvdPk)
attr title  "received packet lifetime, stats"
attr unit  s
scalar BundledNetworks.host[9].udp 	droppedPkBadChecksum:count 	0
attr interpolationmode  none
attr title  "packets dropped (checksum error), count"
scalar BundledNetworks.host[9].udp 	droppedPkWrongPort:count 	0
attr interpolationmode  none
attr title  "packets dropped (wrong port), count"
scalar BundledNetworks.host[9].udp 	passedUpPk:count 	0
attr interpolationmode  none
attr title  "packets passed up, count"
scalar BundledNetworks.host[9].udp 	rcvdPk:count 	0
attr interpolationmode  none
attr source  rcvdPk
attr title  "packets received, count"
scalar BundledNetworks.host[9].udp 	rcvdPk:sum(packetBytes) 	0
attr interpolationmode  none
attr source  rcvdPk
attr title  "packets received, sum(packetBytes)"
scalar BundledNetworks.host[9].udp 	sentPk:count 	866
attr interpolationmode  none
attr source  sentPk
attr title  "packets sent, count"
scalar BundledNetworks.host[9].udp 	sentPk:sum(packetBytes) 	450320
attr interpolationmode  none
attr source  sentPk
attr title  "packets sent, sum(packetBytes)"
statistic BundledNetworks.host[9].aodv 	NumSentAODVPackets
field count 364
field mean 182.5
field stddev 105.2219875628
field sum 66430
field sqrsum 16142490
field min 1
field max 364
statistic BundledNetworks.host[9].aodv 	NumReceivedAODVPackets
field count 40
field mean 20.5
field stddev 11.6904519445
field sum 820
field sqrsum 22140
field min 1
field max 40
scalar BundledNetworks.host[9].aodv 	"Number of LinkBreaks" 	1
scalar BundledNetworks.host[9].aodv 	RERRSentNow 	1
scalar BundledNetworks.host[9].aodv 	HelloMsg:count 	0
scalar BundledNetworks.host[10].wlan[0].mac 	"number of received packets" 	1348
scalar BundledNetworks.host[10].wlan[0].mac 	"number of collisions" 	793
scalar BundledNetworks.host[10].wlan[0].mac 	"number of internal collisions" 	0
scalar BundledNetworks.host[10].wlan[0].mac 	"number of retry for AC 0" 	228
scalar BundledNetworks.host[10].wlan[0].mac 	"sent and received bits" 	2238960
scalar BundledNetworks.host[10].wlan[0].mac 	"sent packet within AC 0" 	484
scalar BundledNetworks.host[10].wlan[0].mac 	"sent in TXOP " 	0
scalar BundledNetworks.host[10].wlan[0].mac 	"sentWithoutRetry AC 0" 	330
scalar BundledNetworks.host[10].wlan[0].mac 	"numGivenUp AC 0" 	0
scalar BundledNetworks.host[10].wlan[0].mac 	"numDropped AC 0" 	0
scalar BundledNetworks.host[10].wlan[0].radio 	lossRate:min 	0
attr interpolationmode  backward-sample-hold
attr title  "packet loss rate, min"
scalar BundledNetworks.host[10].wlan[0].radio 	lossRate:max 	0.4
attr interpolationmode  backward-sample-hold
attr title  "packet loss rate, max"
scalar BundledNetworks.host[10].wlan[0].radio 	lossRate:timeavg 	0.063794000823493
attr interpolationmode  backward-sample-hold
attr title  "packet loss rate, timeavg"
statistic BundledNetworks.host[10].wlan[0].radio 	channelNo:histogram
field count 1
field mean 0
field stddev -nan
field sum 0
field sqrsum 0
field min 0
field max 0
attr interpolationmode  sample-hold
attr title  "channel no, histogram"
bin	-INF	0
bin	-0.5	0
bin	-0.46666666666667	0
bin	-0.43333333333333	0
bin	-0.4	0
bin	-0.36666666666667	0
bin	-0.33333333333333	0
bin	-0.3	0
bin	-0.26666666666667	0
bin	-0.23333333333333	0
bin	-0.2	0
bin	-0.16666666666667	0
bin	-0.13333333333333	0
bin	-0.1	0
bin	-0.066666666666667	0
bin	-0.033333333333333	0
bin	0	1
bin	0.033333333333333	0
bin	0.066666666666667	0
bin	0.1	0
bin	0.13333333333333	0
bin	0.16666666666667	0
bin	0.2	0
bin	0.23333333333333	0
bin	0.26666666666667	0
bin	0.3	0
bin	0.33333333333333	0
bin	0.36666666666667	0
bin	0.4	0
bin	0.43333333333333	0
bin	0.46666666666667	0
bin	0.5	0
scalar BundledNetworks.host[10].wlan[0].radio 	bitrate:min 	54000000
attr interpolationmode  sample-hold
attr title  "tx bitrate, min"
attr unit  bps
scalar BundledNetworks.host[10].wlan[0].radio 	bitrate:max 	54000000
attr interpolationmode  sample-hold
attr title  "tx bitrate, max"
attr unit  bps
scalar BundledNetworks.host[10].wlan[0].radio 	bitrate:timeavg 	54000000
attr interpolationmode  sample-hold
attr title  "tx bitrate, timeavg"
attr unit  bps
statistic BundledNetworks.host[10].udpApp[0] 	endToEndDelay:histogram
field count 865
field mean 0.00059839426701387
field stddev 0.0010888906687706
field sum 0.517611040967
field sqrsum 0.0013341654951525
field min 0.000142470463
field max 0.017599553236
attr interpolationmode  none
attr source  messageAge(rcvdPk)
attr title  "end-to-end delay, histogram"
attr unit  s
bin	-INF	0
bin	-0.0085860709235	0
bin	-0.0074222654053	0
bin	-0.0062584598871	0
bin	-0.0050946543689	0
bin	-0.0039308488507	0
bin	-0.0027670433325	0
bin	-0.0016032378143	0
bin	-0.0004394322961	850
bin	0.0007243732221	4
bin	0.0018881787403	4
bin	0.0030519842585	1
bin	0.0042157897767	1
bin	0.0053795952949	0
bin	0.0065434008131	0
bin	0.0077072063313	0
bin	0.0088710118495	1
bin	0.0100348173677	1
bin	0.0111986228859	0
bin	0.0123624284041	0
bin	0.0135262339223	0
bin	0.0146900394405	1
bin	0.0158538449587	1
bin	0.0170176504769	1
bin	0.0181814559951	0
bin	0.0193452615133	0
bin	0.0205090670315	0
bin	0.0216728725497	0
bin	0.0228366780679	0
bin	0.0240004835861	0
bin	0.0251642891043	0
bin	0.0263280946225	0
scalar BundledNetworks.host[10].udp 	droppedPkBadChecksum:count 	0
attr interpolationmode  none
attr title  "packets dropped (checksum error), count"
scalar BundledNetworks.host[10].udp 	droppedPkWrongPort:count 	0
attr interpolationmode  none
attr title  "packets dropped (wrong port), count"
scalar BundledNetworks.host[10].udp 	passedUpPk:count 	865
attr interpolationmode  none
attr title  "packets passed up, count"
scalar BundledNetworks.host[10].udp 	rcvdPk:count 	865
attr interpolationmode  none
attr source  rcvdPk
attr title  "packets received, count"
scalar BundledNetworks.host[10].udp 	rcvdPk:sum(packetBytes) 	449800
attr interpolationmode  none
attr source  rcvdPk
attr title  "packets received, sum(packetBytes)"
scalar BundledNetworks.host[10].udp 	sentPk:count 	0
attr interpolationmode  none
attr source  sentPk
attr title  "packets sent, count"
scalar BundledNetworks.host[10].udp 	sentPk:sum(packetBytes) 	0
attr interpolationmode  none
attr source  sentPk
attr title  "packets sent, sum(packetBytes)"
statistic BundledNetworks.host[10].aodv 	NumSentAODVPackets
field count 330
field mean 165.5
field stddev 95.407022802307
field sum 54615
field sqrsum 12033505
field min 1
field max 330
statistic BundledNetworks.host[10].aodv 	NumReceivedAODVPackets
field count 39
field mean 20
field stddev 11.401754250991
field sum 780
field sqrsum 20540
field min 1
field max 39
scalar BundledNetworks.host[10].aodv 	"Number of LinkBreaks" 	0
scalar BundledNetworks.host[10].aodv 	RERRSentNow 	0
scalar BundledNetworks.host[10].aodv 	HelloMsg:count 	0
scalar BundledNetworks.host[11].wlan[0].mac 	"number of received packets" 	4
scalar BundledNetworks.host[11].wlan[0].mac 	"number of collisions" 	758
scalar BundledNetworks.host[11].wlan[0].mac 	"number of internal collisions" 	0
scalar BundledNetworks.host[11].wlan[0].mac 	"number of retry for AC 0" 	46
scalar BundledNetworks.host[11].wlan[0].mac 	"sent and received bits" 	4053616
scalar BundledNetworks.host[11].wlan[0].mac 	"sent packet within AC 0" 	868
scalar BundledNetworks.host[11].wlan[0].mac 	"sent in TXOP " 	0
scalar BundledNetworks.host[11].wlan[0].mac 	"sentWithoutRetry AC 0" 	855
scalar BundledNetworks.host[11].wlan[0].mac 	"numGivenUp AC 0" 	2
scalar BundledNetworks.host[11].wlan[0].mac 	"numDropped AC 0" 	0
scalar BundledNetworks.host[11].wlan[0].radio 	lossRate:min 	0
attr interpolationmode  backward-sample-hold
attr title  "packet loss rate, min"
scalar BundledNetworks.host[11].wlan[0].radio 	lossRate:max 	0.32
attr interpolationmode  backward-sample-hold
attr title  "packet loss rate, max"
scalar BundledNetworks.host[11].wlan[0].radio 	lossRate:timeavg 	0.061526568556528
attr interpolationmode  backward-sample-hold
attr title  "packet loss rate, timeavg"
statistic BundledNetworks.host[11].wlan[0].radio 	channelNo:histogram
field count 1
field mean 0
field stddev -nan
field sum 0
field sqrsum 0
field min 0
field max 0
attr interpolationmode  sample-hold
attr title  "channel no, histogram"
bin	-INF	0
bin	-0.5	0
bin	-0.46666666666667	0
bin	-0.43333333333333	0
bin	-0.4	0
bin	-0.36666666666667	0
bin	-0.33333333333333	0
bin	-0.3	0
bin	-0.26666666666667	0
bin	-0.23333333333333	0
bin	-0.2	0
bin	-0.16666666666667	0
bin	-0.13333333333333	0
bin	-0.1	0
bin	-0.066666666666667	0
bin	-0.033333333333333	0
bin	0	1
bin	0.033333333333333	0
bin	0.066666666666667	0
bin	0.1	0
bin	0.13333333333333	0
bin	0.16666666666667	0
bin	0.2	0
bin	0.23333333333333	0
bin	0.26666666666667	0
bin	0.3	0
bin	0.33333333333333	0
bin	0.36666666666667	0
bin	0.4	0
bin	0.43333333333333	0
bin	0.46666666666667	0
bin	0.5	0
scalar BundledNetworks.host[11].wlan[0].radio 	bitrate:min 	54000000
attr interpolationmode  sample-hold
attr title  "tx bitrate, min"
attr unit  bps
scalar BundledNetworks.host[11].wlan[0].radio 	bitrate:max 	54000000
attr interpolationmode  sample-hold
attr title  "tx bitrate, max"
attr unit  bps
scalar BundledNetworks.host[11].wlan[0].radio 	bitrate:timeavg 	54000000
attr interpolationmode  sample-hold
attr title  "tx bitrate, timeavg"
attr unit  bps
scalar BundledNetworks.host[11].udpApp[0] 	"packets sent" 	868
scalar BundledNetworks.host[11].udpApp[0] 	"packets received" 	0
statistic BundledNetworks.host[11].udpApp[0] 	rcvdPkLifetime:stats
field count 0
field mean -nan
field stddev -nan
field sum 0
field sqrsum 0
field min -nan
field max -nan
attr interpolationmode  none
attr source  messageAge(rcvdPk)
attr title  "received packet lifetime, stats"
attr unit  s
scalar BundledNetworks.host[11].udp 	droppedPkBadChecksum:count 	0
attr interpolationmode  none
attr title  "packets dropped (checksum error), count"
scalar BundledNetworks.host[11].udp 	droppedPkWrongPort:count 	0
attr interpolationmode  none
attr title  "packets dropped (wrong port), count"
scalar BundledNetworks.host[11].udp 	passedUpPk:count 	0
attr interpolationmode  none
attr title  "packets passed up, count"
scalar BundledNetworks.host[11].udp 	rcvdPk:count 	0
attr interpolationmode  none
attr source  rcvdPk
attr title  "packets received, count"
scalar BundledNetworks.host[11].udp 	rcvdPk:sum(packetBytes) 	0
attr interpolationmode  none
attr source  rcvdPk
attr title  "packets received, sum(packetBytes)"
scalar BundledNetworks.host[11].udp 	sentPk:count 	868
attr interpolationmode  none
attr source  sentPk
attr title  "packets sent, count"
scalar BundledNetworks.host[11].udp 	sentPk:sum(packetBytes) 	451360
attr interpolationmode  none
attr source  sentPk
attr title  "packets sent, sum(packetBytes)"
statistic BundledNetworks.host[11].aodv 	NumSentAODVPackets
field count 235
field mean 118
field stddev 67.982840972312
field sum 27730
field sqrsum 4353610
field min 1
field max 235
statistic BundledNetworks.host[11].aodv 	NumReceivedAODVPackets
field count 40
field mean 20.5
field stddev 11.6904519445
field sum 820
field sqrsum 22140
field min 1
field max 40
scalar BundledNetworks.host[11].aodv 	"Number of LinkBreaks" 	2
scalar BundledNetworks.host[11].aodv 	RERRSentNow 	2
scalar BundledNetworks.host[11].aodv 	HelloMsg:count 	0
scalar BundledNetworks.host[12].wlan[0].mac 	"number of received packets" 	1171
scalar BundledNetworks.host[12].wlan[0].mac 	"number of collisions" 	2289
scalar BundledNetworks.host[12].wlan[0].mac 	"number of internal collisions" 	0
scalar BundledNetworks.host[12].wlan[0].mac 	"number of retry for AC 0" 	1
scalar BundledNetworks.host[12].wlan[0].mac 	"sent and received bits" 	1612448
scalar BundledNetworks.host[12].wlan[0].mac 	"sent packet within AC 0" 	349
scalar BundledNetworks.host[12].wlan[0].mac 	"sent in TXOP " 	0
scalar BundledNetworks.host[12].wlan[0].mac 	"sentWithoutRetry AC 0" 	348
scalar BundledNetworks.host[12].wlan[0].mac 	"numGivenUp AC 0" 	0
scalar BundledNetworks.host[12].wlan[0].mac 	"numDropped AC 0" 	0
scalar BundledNetworks.host[12].wlan[0].radio 	lossRate:min 	0
attr interpolationmode  backward-sample-hold
attr title  "packet loss rate, min"
scalar BundledNetworks.host[12].wlan[0].radio 	lossRate:max 	0.56
attr interpolationmode  backward-sample-hold
attr title  "packet loss rate, max"
scalar BundledNetworks.host[12].wlan[0].radio 	lossRate:timeavg 	0.097997890292125
attr interpolationmode  backward-sample-hold
attr title  "packet loss rate, timeavg"
statistic BundledNetworks.host[12].wlan[0].radio 	channelNo:histogram
field count 1
field mean 0
field stddev -nan
field sum 0
field sqrsum 0
field min 0
field max 0
attr interpolationmode  sample-hold
attr title  "channel no, histogram"
bin	-INF	0
bin	-0.5	0
bin	-0.46666666666667	0
bin	-0.43333333333333	0
bin	-0.4	0
bin	-0.36666666666667	0
bin	-0.33333333333333	0
bin	-0.3	0
bin	-0.26666666666667	0
bin	-0.23333333333333	0
bin	-0.2	0
bin	-0.16666666666667	0
bin	-0.13333333333333	0
bin	-0.1	0
bin	-0.066666666666667	0
bin	-0.033333333333333	0
bin	0	1
bin	0.033333333333333	0
bin	0.066666666666667	0
bin	0.1	0
bin	0.13333333333333	0
bin	0.16666666666667	0
bin	0.2	0
bin	0.23333333333333	0
bin	0.26666666666667	0
bin	0.3	0
bin	0.33333333333333	0
bin	0.36666666666667	0
bin	0.4	0
bin	0.43333333333333	0
bin	0.46666666666667	0
bin	0.5	0
scalar BundledNetworks.host[12].wlan[0].radio 	bitrate:min 	54000000
attr interpolationmode  sample-hold
attr title  "tx bitrate, min"
attr unit  bps
scalar BundledNetworks.host[12].wlan[0].radio 	bitrate:max 	54000000
attr interpolationmode  sample-hold
attr title  "tx bitrate, max"
attr unit  bps
scalar BundledNetworks.host[12].wlan[0].radio 	bitrate:timeavg 	54000000
attr interpolationmode  sample-hold
attr title  "tx bitrate, timeavg"
attr unit  bps
statistic BundledNetworks.host[12].udpApp[0] 	endToEndDelay:histogram
field count 823
field mean 0.010569496966643
field stddev 0.085098043326729
field sum 8.698696003547
field sqrsum 6.0445993169704
field min 0.000142421766
field max 1.465071169033
attr interpolationmode  none
attr source  messageAge(rcvdPk)
attr title  "end-to-end delay, histogram"
attr unit  s
bin	-INF	0
bin	-0.500828110112	0
bin	-0.43403202168587	0
bin	-0.36723593325973	0
bin	-0.3004398448336	0
bin	-0.23364375640747	0
bin	-0.16684766798133	0
bin	-0.1000515795552	0
bin	-0.033255491129067	812
bin	0.033540597297067	0
bin	0.1003366857232	1
bin	0.16713277414933	1
bin	0.23392886257547	0
bin	0.3007249510016	1
bin	0.36752103942773	1
bin	0.43431712785387	0
bin	0.50111321628	1
bin	0.56790930470613	1
bin	0.63470539313227	0
bin	0.7015014815584	1
bin	0.76829756998453	1
bin	0.83509365841067	0
bin	0.9018897468368	1
bin	0.96868583526293	1
bin	1.0354819236891	0
bin	1.1022780121152	0
bin	1.1690741005413	0
bin	1.2358701889675	0
bin	1.3026662773936	0
bin	1.3694623658197	0
bin	1.4362584542459	1
bin	1.503054542672	0
scalar BundledNetworks.host[12].udp 	droppedPkBadChecksum:count 	0
attr interpolationmode  none
attr title  "packets dropped (checksum error), count"
scalar BundledNetworks.host[12].udp 	droppedPkWrongPort:count 	0
attr interpolationmode  none
attr title  "packets dropped (wrong port), count"
scalar BundledNetworks.host[12].udp 	passedUpPk:count 	823
attr interpolationmode  none
attr title  "packets passed up, count"
scalar BundledNetworks.host[12].udp 	rcvdPk:count 	823
attr interpolationmode  none
attr source  rcvdPk
attr title  "packets received, count"
scalar BundledNetworks.host[12].udp 	rcvdPk:sum(packetBytes) 	427960
attr interpolationmode  none
attr source  rcvdPk
attr title  "packets received, sum(packetBytes)"
scalar BundledNetworks.host[12].udp 	sentPk:count 	0
attr interpolationmode  none
attr source  sentPk
attr title  "packets sent, count"
scalar BundledNetworks.host[12].udp 	sentPk:sum(packetBytes) 	0
attr interpolationmode  none
attr source  sentPk
attr title  "packets sent, sum(packetBytes)"
statistic BundledNetworks.host[12].aodv 	NumSentAODVPackets
field count 375
field mean 188
field stddev 108.39741694339
field sum 70500
field sqrsum 17648500
field min 1
field max 375
statistic BundledNetworks.host[12].aodv 	NumReceivedAODVPackets
field count 41
field mean 21
field stddev 11.979148550711
field sum 861
field sqrsum 23821
field min 1
field max 41
scalar BundledNetworks.host[12].aodv 	"Number of LinkBreaks" 	0
scalar BundledNetworks.host[12].aodv 	RERRSentNow 	0
scalar BundledNetworks.host[12].aodv 	HelloMsg:count 	0
scalar BundledNetworks.host[13].wlan[0].mac 	"number of received packets" 	143
scalar BundledNetworks.host[13].wlan[0].mac 	"number of collisions" 	613
scalar BundledNetworks.host[13].wlan[0].mac 	"number of internal collisions" 	0
scalar BundledNetworks.host[13].wlan[0].mac 	"number of retry for AC 0" 	1251
scalar BundledNetworks.host[13].wlan[0].mac 	"sent and received bits" 	4444592
scalar BundledNetworks.host[13].wlan[0].mac 	"sent packet within AC 0" 	963
scalar BundledNetworks.host[13].wlan[0].mac 	"sent in TXOP " 	0
scalar BundledNetworks.host[13].wlan[0].mac 	"sentWithoutRetry AC 0" 	296
scalar BundledNetworks.host[13].wlan[0].mac 	"numGivenUp AC 0" 	1
scalar BundledNetworks.host[13].wlan[0].mac 	"numDropped AC 0" 	0
scalar BundledNetworks.host[13].wlan[0].radio 	lossRate:min 	0
attr interpolationmode  backward-sample-hold
attr title  "packet loss rate, min"
scalar BundledNetworks.host[13].wlan[0].radio 	lossRate:max 	0.44
attr interpolationmode  backward-sample-hold
attr title  "packet loss rate, max"
scalar BundledNetworks.host[13].wlan[0].radio 	lossRate:timeavg 	0.051988326683872
attr interpolationmode  backward-sample-hold
attr title  "packet loss rate, timeavg"
statistic BundledNetworks.host[13].wlan[0].radio 	channelNo:histogram
field count 1
field mean 0
field stddev -nan
field sum 0
field sqrsum 0
field min 0
field max 0
attr interpolationmode  sample-hold
attr title  "channel no, histogram"
bin	-INF	0
bin	-0.5	0
bin	-0.46666666666667	0
bin	-0.43333333333333	0
bin	-0.4	0
bin	-0.36666666666667	0
bin	-0.33333333333333	0
bin	-0.3	0
bin	-0.26666666666667	0
bin	-0.23333333333333	0
bin	-0.2	0
bin	-0.16666666666667	0
bin	-0.13333333333333	0
bin	-0.1	0
bin	-0.066666666666667	0
bin	-0.033333333333333	0
bin	0	1
bin	0.033333333333333	0
bin	0.066666666666667	0
bin	0.1	0
bin	0.13333333333333	0
bin	0.16666666666667	0
bin	0.2	0
bin	0.23333333333333	0
bin	0.26666666666667	0
bin	0.3	0
bin	0.33333333333333	0
bin	0.36666666666667	0
bin	0.4	0
bin	0.43333333333333	0
bin	0.46666666666667	0
bin	0.5	0
scalar BundledNetworks.host[13].wlan[0].radio 	bitrate:min 	54000000
attr interpolationmode  sample-hold
attr title  "tx bitrate, min"
attr unit  bps
scalar BundledNetworks.host[13].wlan[0].radio 	bitrate:max 	54000000
attr interpolationmode  sample-hold
attr title  "tx bitrate, max"
attr unit  bps
scalar BundledNetworks.host[13].wlan[0].radio 	bitrate:timeavg 	54000000
attr interpolationmode  sample-hold
attr title  "tx bitrate, timeavg"
attr unit  bps
scalar BundledNetworks.host[13].udpApp[0] 	"packets sent" 	824
scalar BundledNetworks.host[13].udpApp[0] 	"packets received" 	0
statistic BundledNetworks.host[13].udpApp[0] 	rcvdPkLifetime:stats
field count 0
field mean -nan
field stddev -nan
field sum 0
field sqrsum 0
field min -nan
field max -nan
attr interpolationmode  none
attr source  messageAge(rcvdPk)
attr title  "received packet lifetime, stats"
attr unit  s
scalar BundledNetworks.host[13].udp 	droppedPkBadChecksum:count 	0
attr interpolationmode  none
attr title  "packets dropped (checksum error), count"
scalar BundledNetworks.host[13].udp 	droppedPkWrongPort:count 	0
attr interpolationmode  none
attr title  "packets dropped (wrong port), count"
scalar BundledNetworks.host[13].udp 	passedUpPk:count 	0
attr interpolationmode  none
attr title  "packets passed up, count"
scalar BundledNetworks.host[13].udp 	rcvdPk:count 	0
attr interpolationmode  none
attr source  rcvdPk
attr title  "packets received, count"
scalar BundledNetworks.host[13].udp 	rcvdPk:sum(packetBytes) 	0
attr interpolationmode  none
attr source  rcvdPk
attr title  "packets received, sum(packetBytes)"
scalar BundledNetworks.host[13].udp 	sentPk:count 	824
attr interpolationmode  none
attr source  sentPk
attr title  "packets sent, count"
scalar BundledNetworks.host[13].udp 	sentPk:sum(packetBytes) 	428480
attr interpolationmode  none
attr source  sentPk
attr title  "packets sent, sum(packetBytes)"
statistic BundledNetworks.host[13].aodv 	NumSentAODVPackets
field count 412
field mean 206.5
field stddev 119.07840554301
field sum 85078
field sqrsum 23396450
field min 1
field max 412
statistic BundledNetworks.host[13].aodv 	NumReceivedAODVPackets
field count 54
field mean 27.5
field stddev 15.732132722552
field sum 1485
field sqrsum 53955
field min 1
field max 54
scalar BundledNetworks.host[13].aodv 	"Number of LinkBreaks" 	1
scalar BundledNetworks.host[13].aodv 	RERRSentNow 	2
scalar BundledNetworks.host[13].aodv 	HelloMsg:count 	0
scalar BundledNetworks.host[14].wlan[0].mac 	"number of received packets" 	0
scalar BundledNetworks.host[14].wlan[0].mac 	"number of collisions" 	1748
scalar BundledNetworks.host[14].wlan[0].mac 	"number of internal collisions" 	0
scalar BundledNetworks.host[14].wlan[0].mac 	"number of retry for AC 0" 	2
scalar BundledNetworks.host[14].wlan[0].mac 	"sent and received bits" 	17424
scalar BundledNetworks.host[14].wlan[0].mac 	"sent packet within AC 0" 	1
scalar BundledNetworks.host[14].wlan[0].mac 	"sent in TXOP " 	0
scalar BundledNetworks.host[14].wlan[0].mac 	"sentWithoutRetry AC 0" 	0
scalar BundledNetworks.host[14].wlan[0].mac 	"numGivenUp AC 0" 	0
scalar BundledNetworks.host[14].wlan[0].mac 	"numDropped AC 0" 	0
scalar BundledNetworks.host[14].wlan[0].radio 	lossRate:min 	0
attr interpolationmode  backward-sample-hold
attr title  "packet loss rate, min"
scalar BundledNetworks.host[14].wlan[0].radio 	lossRate:max 	0.46
attr interpolationmode  backward-sample-hold
attr title  "packet loss rate, max"
scalar BundledNetworks.host[14].wlan[0].radio 	lossRate:timeavg 	0.13743051666403
attr interpolationmode  backward-sample-hold
attr title  "packet loss rate, timeavg"
statistic BundledNetworks.host[14].wlan[0].radio 	channelNo:histogram
field count 1
field mean 0
field stddev -nan
field sum 0
field sqrsum 0
field min 0
field max 0
attr interpolationmode  sample-hold
attr title  "channel no, histogram"
bin	-INF	0
bin	-0.5	0
bin	-0.46666666666667	0
bin	-0.43333333333333	0
bin	-0.4	0
bin	-0.36666666666667	0
bin	-0.33333333333333	0
bin	-0.3	0
bin	-0.26666666666667	0
bin	-0.23333333333333	0
bin	-0.2	0
bin	-0.16666666666667	0
bin	-0.13333333333333	0
bin	-0.1	0
bin	-0.066666666666667	0
bin	-0.033333333333333	0
bin	0	1
bin	0.033333333333333	0
bin	0.066666666666667	0
bin	0.1	0
bin	0.13333333333333	0
bin	0.16666666666667	0
bin	0.2	0
bin	0.23333333333333	0
bin	0.26666666666667	0
bin	0.3	0
bin	0.33333333333333	0
bin	0.36666666666667	0
bin	0.4	0
bin	0.43333333333333	0
bin	0.46666666666667	0
bin	0.5	0
scalar BundledNetworks.host[14].wlan[0].radio 	bitrate:min 	54000000
attr interpolationmode  sample-hold
attr title  "tx bitrate, min"
attr unit  bps
scalar BundledNetworks.host[14].wlan[0].radio 	bitrate:max 	54000000
attr interpolationmode  sample-hold
attr title  "tx bitrate, max"
attr unit  bps
scalar BundledNetworks.host[14].wlan[0].radio 	bitrate:timeavg 	54000000
attr interpolationmode  sample-hold
attr title  "tx bitrate, timeavg"
attr unit  bps
statistic BundledNetworks.host[14].udpApp[0] 	endToEndDelay:histogram
field count 0
field mean -nan
field stddev -nan
field sum 0
field sqrsum 0
field min -nan
field max -nan
attr interpolationmode  none
attr source  messageAge(rcvdPk)
attr title  "end-to-end delay, histogram"
attr unit  s
bin	-INF	0
bin	-0.5	0
bin	-0.46666666666667	0
bin	-0.43333333333333	0
bin	-0.4	0
bin	-0.36666666666667	0
bin	-0.33333333333333	0
bin	-0.3	0
bin	-0.26666666666667	0
bin	-0.23333333333333	0
bin	-0.2	0
bin	-0.16666666666667	0
bin	-0.13333333333333	0
bin	-0.1	0
bin	-0.066666666666667	0
bin	-0.033333333333333	0
bin	0	0
bin	0.033333333333333	0
bin	0.066666666666667	0
bin	0.1	0
bin	0.13333333333333	0
bin	0.16666666666667	0
bin	0.2	0
bin	0.23333333333333	0
bin	0.26666666666667	0
bin	0.3	0
bin	0.33333333333333	0
bin	0.36666666666667	0
bin	0.4	0
bin	0.43333333333333	0
bin	0.46666666666667	0
bin	0.5	0
scalar BundledNetworks.host[14].udp 	droppedPkBadChecksum:count 	0
attr interpolationmode  none
attr title  "packets dropped (checksum error), count"
scalar BundledNetworks.host[14].udp 	droppedPkWrongPort:count 	0
attr interpolationmode  none
attr title  "packets dropped (wrong port), count"
scalar BundledNetworks.host[14].udp 	passedUpPk:count 	0
attr interpolationmode  none
attr title  "packets passed up, count"
scalar BundledNetworks.host[14].udp 	rcvdPk:count 	0
attr interpolationmode  none
attr source  rcvdPk
attr title  "packets received, count"
scalar BundledNetworks.host[14].udp 	rcvdPk:sum(packetBytes) 	0
attr interpolationmode  none
attr source  rcvdPk
attr title  "packets received, sum(packetBytes)"
scalar BundledNetworks.host[14].udp 	sentPk:count 	0
attr interpolationmode  none
attr source  sentPk
attr title  "packets sent, count"
scalar BundledNetworks.host[14].udp 	sentPk:sum(packetBytes) 	0
attr interpolationmode  none
attr source  sentPk
attr title  "packets sent, sum(packetBytes)"
statistic BundledNetworks.host[14].aodv 	NumSentAODVPackets
field count 335
field mean 168
field stddev 96.850400102426
field sum 56280
field sqrsum 12587960
field min 1
field max 335
statistic BundledNetworks.host[14].aodv 	NumReceivedAODVPackets
field count 34
field mean 17.5
field stddev 9.9582461641931
field sum 595
field sqrsum 13685
field min 1
field max 34
scalar BundledNetworks.host[14].aodv 	"Number of LinkBreaks" 	0
scalar BundledNetworks.host[14].aodv 	RERRSentNow 	0
scalar BundledNetworks.host[14].aodv 	HelloMsg:count 	0
scalar BundledNetworks.host[15].wlan[0].mac 	"number of received packets" 	0
scalar BundledNetworks.host[15].wlan[0].mac 	"number of collisions" 	1021
scalar BundledNetworks.host[15].wlan[0].mac 	"number of internal collisions" 	0
scalar BundledNetworks.host[15].wlan[0].mac 	"number of retry for AC 0" 	0
scalar BundledNetworks.host[15].wlan[0].mac 	"sent and received bits" 	14880
scalar BundledNetworks.host[15].wlan[0].mac 	"sent packet within AC 0" 	0
scalar BundledNetworks.host[15].wlan[0].mac 	"sent in TXOP " 	0
scalar BundledNetworks.host[15].wlan[0].mac 	"sentWithoutRetry AC 0" 	0
scalar BundledNetworks.host[15].wlan[0].mac 	"numGivenUp AC 0" 	0
scalar BundledNetworks.host[15].wlan[0].mac 	"numDropped AC 0" 	0
scalar BundledNetworks.host[15].wlan[0].radio 	lossRate:min 	0
attr interpolationmode  backward-sample-hold
attr title  "packet loss rate, min"
scalar BundledNetworks.host[15].wlan[0].radio 	lossRate:max 	0.58
attr interpolationmode  backward-sample-hold
attr title  "packet loss rate, max"
scalar BundledNetworks.host[15].wlan[0].radio 	lossRate:timeavg 	0.059038800087678
attr interpolationmode  backward-sample-hold
attr title  "packet loss rate, timeavg"
statistic BundledNetworks.host[15].wlan[0].radio 	channelNo:histogram
field count 1
field mean 0
field stddev -nan
field sum 0
field sqrsum 0
field min 0
field max 0
attr interpolationmode  sample-hold
attr title  "channel no, histogram"
bin	-INF	0
bin	-0.5	0
bin	-0.46666666666667	0
bin	-0.43333333333333	0
bin	-0.4	0
bin	-0.36666666666667	0
bin	-0.33333333333333	0
bin	-0.3	0
bin	-0.26666666666667	0
bin	-0.23333333333333	0
bin	-0.2	0
bin	-0.16666666666667	0
bin	-0.13333333333333	0
bin	-0.1	0
bin	-0.066666666666667	0
bin	-0.033333333333333	0
bin	0	1
bin	0.033333333333333	0
bin	0.066666666666667	0
bin	0.1	0
bin	0.13333333333333	0
bin	0.16666666666667	0
bin	0.2	0
bin	0.23333333333333	0
bin	0.26666666666667	0
bin	0.3	0
bin	0.33333333333333	0
bin	0.36666666666667	0
bin	0.4	0
bin	0.43333333333333	0
bin	0.46666666666667	0
bin	0.5	0
scalar BundledNetworks.host[15].wlan[0].radio 	bitrate:min 	54000000
attr interpolationmode  sample-hold
attr title  "tx bitrate, min"
attr unit  bps
scalar BundledNetworks.host[15].wlan[0].radio 	bitrate:max 	54000000
attr interpolationmode  sample-hold
attr title  "tx bitrate, max"
attr unit  bps
scalar BundledNetworks.host[15].wlan[0].radio 	bitrate:timeavg 	54000000
attr interpolationmode  sample-hold
attr title  "tx bitrate, timeavg"
attr unit  bps
scalar BundledNetworks.host[15].udpApp[0] 	"packets sent" 	871
scalar BundledNetworks.host[15].udpApp[0] 	"packets received" 	0
statistic BundledNetworks.host[15].udpApp[0] 	rcvdPkLifetime:stats
field count 0
field mean -nan
field stddev -nan
field sum 0
field sqrsum 0
field min -nan
field max -nan
attr interpolationmode  none
attr source  messageAge(rcvdPk)
attr title  "received packet lifetime, stats"
attr unit  s
scalar BundledNetworks.host[15].udp 	droppedPkBadChecksum:count 	0
attr interpolationmode  none
attr title  "packets dropped (checksum error), count"
scalar BundledNetworks.host[15].udp 	droppedPkWrongPort:count 	0
attr interpolationmode  none
attr title  "packets dropped (wrong port), count"
scalar BundledNetworks.host[15].udp 	passedUpPk:count 	0
attr interpolationmode  none
attr title  "packets passed up, count"
scalar BundledNetworks.host[15].udp 	rcvdPk:count 	0
attr interpolationmode  none
attr source  rcvdPk
attr title  "packets received, count"
scalar BundledNetworks.host[15].udp 	rcvdPk:sum(packetBytes) 	0
attr interpolationmode  none
attr source  rcvdPk
attr title  "packets received, sum(packetBytes)"
scalar BundledNetworks.host[15].udp 	sentPk:count 	871
attr interpolationmode  none
attr source  sentPk
attr title  "packets sent, count"
scalar BundledNetworks.host[15].udp 	sentPk:sum(packetBytes) 	452920
attr interpolationmode  none
attr source  sentPk
attr title  "packets sent, sum(packetBytes)"
statistic BundledNetworks.host[15].aodv 	NumSentAODVPackets
field count 352
field mean 176.5
field stddev 101.75788257755
field sum 62128
field sqrsum 14600080
field min 1
field max 352
statistic BundledNetworks.host[15].aodv 	NumReceivedAODVPackets
field count 30
field mean 15.5
field stddev 8.8034084308295
field sum 465
field sqrsum 9455
field min 1
field max 30
scalar BundledNetworks.host[15].aodv 	"Number of LinkBreaks" 	0
scalar BundledNetworks.host[15].aodv 	RERRSentNow 	0
scalar BundledNetworks.host[15].aodv 	HelloMsg:count 	0
scalar BundledNetworks.host[16].wlan[0].mac 	"number of received packets" 	0
scalar BundledNetworks.host[16].wlan[0].mac 	"number of collisions" 	1549
scalar BundledNetworks.host[16].wlan[0].mac 	"number of internal collisions" 	0
scalar BundledNetworks.host[16].wlan[0].mac 	"number of retry for AC 0" 	3
scalar BundledNetworks.host[16].wlan[0].mac 	"sent and received bits" 	18912
scalar BundledNetworks.host[16].wlan[0].mac 	"sent packet within AC 0" 	1
scalar BundledNetworks.host[16].wlan[0].mac 	"sent in TXOP " 	0
scalar BundledNetworks.host[16].wlan[0].mac 	"sentWithoutRetry AC 0" 	0
scalar BundledNetworks.host[16].wlan[0].mac 	"numGivenUp AC 0" 	0
scalar BundledNetworks.host[16].wlan[0].mac 	"numDropped AC 0" 	0
scalar BundledNetworks.host[16].wlan[0].radio 	lossRate:min 	0
attr interpolationmode  backward-sample-hold
attr title  "packet loss rate, min"
scalar BundledNetworks.host[16].wlan[0].radio 	lossRate:max 	0.36
attr interpolationmode  backward-sample-hold
attr title  "packet loss rate, max"
scalar BundledNetworks.host[16].wlan[0].radio 	lossRate:timeavg 	0.10949473480845
attr interpolationmode  backward-sample-hold
attr title  "packet loss rate, timeavg"
statistic BundledNetworks.host[16].wlan[0].radio 	channelNo:histogram
field count 1
field mean 0
field stddev -nan
field sum 0
field sqrsum 0
field min 0
field max 0
attr interpolationmode  sample-hold
attr title  "channel no, histogram"
bin	-INF	0
bin	-0.5	0
bin	-0.46666666666667	0
bin	-0.43333333333333	0
bin	-0.4	0
bin	-0.36666666666667	0
bin	-0.33333333333333	0
bin	-0.3	0
bin	-0.26666666666667	0
bin	-0.23333333333333	0
bin	-0.2	0
bin	-0.16666666666667	0
bin	-0.13333333333333	0
bin	-0.1	0
bin	-0.066666666666667	0
bin	-0.033333333333333	0
bin	0	1
bin	0.033333333333333	0
bin	0.066666666666667	0
bin	0.1	0
bin	0.13333333333333	0
bin	0.16666666666667	0
bin	0.2	0
bin	0.23333333333333	0
bin	0.26666666666667	0
bin	0.3	0
bin	0.33333333333333	0
bin	0.36666666666667	0
bin	0.4	0
bin	0.43333333333333	0
bin	0.46666666666667	0
bin	0.5	0
scalar BundledNetworks.host[16].wlan[0].radio 	bitrate:min 	54000000
attr interpolationmode  sample-hold
attr title  "tx bitrate, min"
attr unit  bps
scalar BundledNetworks.host[16].wlan[0].radio 	bitrate:max 	54000000
attr interpolationmode  sample-hold
attr title  "tx bitrate, max"
attr unit  bps
scalar BundledNetworks.host[16].wlan[0].radio 	bitrate:timeavg 	54000000
attr interpolationmode  sample-hold
attr title  "tx bitrate, timeavg"
attr unit  bps
statistic BundledNetworks.host[16].udpApp[0] 	endToEndDelay:histogram
field count 0
field mean -nan
field stddev -nan
field sum 0
field sqrsum 0
field min -nan
field max -nan
attr interpolationmode  none
attr source  messageAge(rcvdPk)
attr title  "end-to-end delay, histogram"
attr unit  s
bin	-INF	0
bin	-0.5	0
bin	-0.46666666666667	0
bin	-0.43333333333333	0
bin	-0.4	0
bin	-0.36666666666667	0
bin	-0.33333333333333	0
bin	-0.3	0
bin	-0.26666666666667	0
bin	-0.23333333333333	0
bin	-0.2	0
bin	-0.16666666666667	0
bin	-0.13333333333333	0
bin	-0.1	0
bin	-0.066666666666667	0
bin	-0.033333333333333	0
bin	0	0
bin	0.033333333333333	0
bin	0.066666666666667	0
bin	0.1	0
bin	0.13333333333333	0
bin	0.16666666666667	0
bin	0.2	0
bin	0.23333333333333	0
bin	0.26666666666667	0
bin	0.3	0
bin	0.33333333333333	0
bin	0.36666666666667	0
bin	0.4	0
bin	0.43333333333333	0
bin	0.46666666666667	0
[...]
field sum 73536
field sqrsum 18800704
field min 1
field max 383
statistic BundledNetworks.host[58].aodv 	NumReceivedAODVPackets
field count 34
field mean 17.5
field stddev 9.9582461641931
field sum 595
field sqrsum 13685
field min 1
field max 34
scalar BundledNetworks.host[58].aodv 	"Number of LinkBreaks" 	0
scalar BundledNetworks.host[58].aodv 	RERRSentNow 	0
scalar BundledNetworks.host[58].aodv 	HelloMsg:count 	0
scalar BundledNetworks.host[59].wlan[0].mac 	"number of received packets" 	0
scalar BundledNetworks.host[59].wlan[0].mac 	"number of collisions" 	1498
scalar BundledNetworks.host[59].wlan[0].mac 	"number of internal collisions" 	0
scalar BundledNetworks.host[59].wlan[0].mac 	"number of retry for AC 0" 	3
scalar BundledNetworks.host[59].wlan[0].mac 	"sent and received bits" 	17424
scalar BundledNetworks.host[59].wlan[0].mac 	"sent packet within AC 0" 	1
scalar BundledNetworks.host[59].wlan[0].mac 	"sent in TXOP " 	0
scalar BundledNetworks.host[59].wlan[0].mac 	"sentWithoutRetry AC 0" 	0
scalar BundledNetworks.host[59].wlan[0].mac 	"numGivenUp AC 0" 	0
scalar BundledNetworks.host[59].wlan[0].mac 	"numDropped AC 0" 	0
scalar BundledNetworks.host[59].wlan[0].radio 	lossRate:min 	0
attr interpolationmode  backward-sample-hold
attr title  "packet loss rate, min"
scalar BundledNetworks.host[59].wlan[0].radio 	lossRate:max 	0.5
attr interpolationmode  backward-sample-hold
attr title  "packet loss rate, max"
scalar BundledNetworks.host[59].wlan[0].radio 	lossRate:timeavg 	0.11171294364489
attr interpolationmode  backward-sample-hold
attr title  "packet loss rate, timeavg"
statistic BundledNetworks.host[59].wlan[0].radio 	channelNo:histogram
field count 1
field mean 0
field stddev -nan
field sum 0
field sqrsum 0
field min 0
field max 0
attr interpolationmode  sample-hold
attr title  "channel no, histogram"
bin	-INF	0
bin	-0.5	0
bin	-0.46666666666667	0
bin	-0.43333333333333	0
bin	-0.4	0
bin	-0.36666666666667	0
bin	-0.33333333333333	0
bin	-0.3	0
bin	-0.26666666666667	0
bin	-0.23333333333333	0
bin	-0.2	0
bin	-0.16666666666667	0
bin	-0.13333333333333	0
bin	-0.1	0
bin	-0.066666666666667	0
bin	-0.033333333333333	0
bin	0	1
bin	0.033333333333333	0
bin	0.066666666666667	0
bin	0.1	0
bin	0.13333333333333	0
bin	0.16666666666667	0
bin	0.2	0
bin	0.23333333333333	0
bin	0.26666666666667	0
bin	0.3	0
bin	0.33333333333333	0
bin	0.36666666666667	0
bin	0.4	0
bin	0.43333333333333	0
bin	0.46666666666667	0
bin	0.5	0
scalar BundledNetworks.host[59].wlan[0].radio 	bitrate:min 	54000000
attr interpolationmode  sample-hold
attr title  "tx bitrate, min"
attr unit  bps
scalar BundledNetworks.host[59].wlan[0].radio 	bitrate:max 	54000000
attr interpolationmode  sample-hold
attr title  "tx bitrate, max"
attr unit  bps
scalar BundledNetworks.host[59].wlan[0].radio 	bitrate:timeavg 	54000000
attr interpolationmode  sample-hold
attr title  "tx bitrate, timeavg"
attr unit  bps
scalar BundledNetworks.host[59].udpApp[0] 	"packets sent" 	875
scalar BundledNetworks.host[59].udpApp[0] 	"packets received" 	0
statistic BundledNetworks.host[59].udpApp[0] 	rcvdPkLifetime:stats
field count 0
field mean -nan
field stddev -nan
field sum 0
field sqrsum 0
field min -nan
field max -nan
attr interpolationmode  none
attr source  messageAge(rcvdPk)
attr title  "received packet lifetime, stats"
attr unit  s
scalar BundledNetworks.host[59].udp 	droppedPkBadChecksum:count 	0
attr interpolationmode  none
attr title  "packets dropped (checksum error), count"
scalar BundledNetworks.host[59].udp 	droppedPkWrongPort:count 	0
attr interpolationmode  none
attr title  "packets dropped (wrong port), count"
scalar BundledNetworks.host[59].udp 	passedUpPk:count 	0
attr interpolationmode  none
attr title  "packets passed up, count"
scalar BundledNetworks.host[59].udp 	rcvdPk:count 	0
attr interpolationmode  none
attr source  rcvdPk
attr title  "packets received, count"
scalar BundledNetworks.host[59].udp 	rcvdPk:sum(packetBytes) 	0
attr interpolationmode  none
attr source  rcvdPk
attr title  "packets received, sum(packetBytes)"
scalar BundledNetworks.host[59].udp 	sentPk:count 	875
attr interpolationmode  none
attr source  sentPk
attr title  "packets sent, count"
scalar BundledNetworks.host[59].udp 	sentPk:sum(packetBytes) 	455000
attr interpolationmode  none
attr source  sentPk
attr title  "packets sent, sum(packetBytes)"
statistic BundledNetworks.host[59].aodv 	NumSentAODVPackets
field count 318
field mean 159.5
field stddev 91.942917073584
field sum 50721
field sqrsum 10769759
field min 1
field max 318
statistic BundledNetworks.host[59].aodv 	NumReceivedAODVPackets
field count 34
field mean 17.5
field stddev 9.9582461641931
field sum 595
field sqrsum 13685
field min 1
field max 34
scalar BundledNetworks.host[59].aodv 	"Number of LinkBreaks" 	0
scalar BundledNetworks.host[59].aodv 	RERRSentNow 	0
scalar BundledNetworks.host[59].aodv 	HelloMsg:count 	0
scalar BundledNetworks.host[60].wlan[0].mac 	"number of received packets" 	157
scalar BundledNetworks.host[60].wlan[0].mac 	"number of collisions" 	1045
scalar BundledNetworks.host[60].wlan[0].mac 	"number of internal collisions" 	0
scalar BundledNetworks.host[60].wlan[0].mac 	"number of retry for AC 0" 	12
scalar BundledNetworks.host[60].wlan[0].mac 	"sent and received bits" 	725392
scalar BundledNetworks.host[60].wlan[0].mac 	"sent packet within AC 0" 	157
scalar BundledNetworks.host[60].wlan[0].mac 	"sent in TXOP " 	0
scalar BundledNetworks.host[60].wlan[0].mac 	"sentWithoutRetry AC 0" 	148
scalar BundledNetworks.host[60].wlan[0].mac 	"numGivenUp AC 0" 	0
scalar BundledNetworks.host[60].wlan[0].mac 	"numDropped AC 0" 	0
scalar BundledNetworks.host[60].wlan[0].radio 	lossRate:min 	0
attr interpolationmode  backward-sample-hold
attr title  "packet loss rate, min"
scalar BundledNetworks.host[60].wlan[0].radio 	lossRate:max 	0.5
attr interpolationmode  backward-sample-hold
attr title  "packet loss rate, max"
scalar BundledNetworks.host[60].wlan[0].radio 	lossRate:timeavg 	0.19924195301025
attr interpolationmode  backward-sample-hold
attr title  "packet loss rate, timeavg"
statistic BundledNetworks.host[60].wlan[0].radio 	channelNo:histogram
field count 1
field mean 0
field stddev -nan
field sum 0
field sqrsum 0
field min 0
field max 0
attr interpolationmode  sample-hold
attr title  "channel no, histogram"
bin	-INF	0
bin	-0.5	0
bin	-0.46666666666667	0
bin	-0.43333333333333	0
bin	-0.4	0
bin	-0.36666666666667	0
bin	-0.33333333333333	0
bin	-0.3	0
bin	-0.26666666666667	0
bin	-0.23333333333333	0
bin	-0.2	0
bin	-0.16666666666667	0
bin	-0.13333333333333	0
bin	-0.1	0
bin	-0.066666666666667	0
bin	-0.033333333333333	0
bin	0	1
bin	0.033333333333333	0
bin	0.066666666666667	0
bin	0.1	0
bin	0.13333333333333	0
bin	0.16666666666667	0
bin	0.2	0
bin	0.23333333333333	0
bin	0.26666666666667	0
bin	0.3	0
bin	0.33333333333333	0
bin	0.36666666666667	0
bin	0.4	0
bin	0.43333333333333	0
bin	0.46666666666667	0
bin	0.5	0
scalar BundledNetworks.host[60].wlan[0].radio 	bitrate:min 	54000000
attr interpolationmode  sample-hold
attr title  "tx bitrate, min"
attr unit  bps
scalar BundledNetworks.host[60].wlan[0].radio 	bitrate:max 	54000000
attr interpolationmode  sample-hold
attr title  "tx bitrate, max"
attr unit  bps
scalar BundledNetworks.host[60].wlan[0].radio 	bitrate:timeavg 	54000000
attr interpolationmode  sample-hold
attr title  "tx bitrate, timeavg"
attr unit  bps
statistic BundledNetworks.host[60].aodv 	NumSentAODVPackets
field count 108
field mean 54.5
field stddev 31.320919526732
field sum 5886
field sqrsum 425754
field min 1
field max 108
statistic BundledNetworks.host[60].aodv 	NumReceivedAODVPackets
field count 24
field mean 12.5
field stddev 7.0710678118655
field sum 300
field sqrsum 4900
field min 1
field max 24
scalar BundledNetworks.host[60].aodv 	"Number of LinkBreaks" 	0
scalar BundledNetworks.host[60].aodv 	RERRSentNow 	1
scalar BundledNetworks.host[60].aodv 	HelloMsg:count 	0
scalar BundledNetworks.host[61].wlan[0].mac 	"number of received packets" 	23
scalar BundledNetworks.host[61].wlan[0].mac 	"number of collisions" 	854
scalar BundledNetworks.host[61].wlan[0].mac 	"number of internal collisions" 	0
scalar BundledNetworks.host[61].wlan[0].mac 	"number of retry for AC 0" 	15
scalar BundledNetworks.host[61].wlan[0].mac 	"sent and received bits" 	105088
scalar BundledNetworks.host[61].wlan[0].mac 	"sent packet within AC 0" 	23
scalar BundledNetworks.host[61].wlan[0].mac 	"sent in TXOP " 	0
scalar BundledNetworks.host[61].wlan[0].mac 	"sentWithoutRetry AC 0" 	18
scalar BundledNetworks.host[61].wlan[0].mac 	"numGivenUp AC 0" 	0
scalar BundledNetworks.host[61].wlan[0].mac 	"numDropped AC 0" 	0
scalar BundledNetworks.host[61].wlan[0].radio 	lossRate:min 	0
attr interpolationmode  backward-sample-hold
attr title  "packet loss rate, min"
scalar BundledNetworks.host[61].wlan[0].radio 	lossRate:max 	0.38
attr interpolationmode  backward-sample-hold
attr title  "packet loss rate, max"
scalar BundledNetworks.host[61].wlan[0].radio 	lossRate:timeavg 	0.049527210156324
attr interpolationmode  backward-sample-hold
attr title  "packet loss rate, timeavg"
statistic BundledNetworks.host[61].wlan[0].radio 	channelNo:histogram
field count 1
field mean 0
field stddev -nan
field sum 0
field sqrsum 0
field min 0
field max 0
attr interpolationmode  sample-hold
attr title  "channel no, histogram"
bin	-INF	0
bin	-0.5	0
bin	-0.46666666666667	0
bin	-0.43333333333333	0
bin	-0.4	0
bin	-0.36666666666667	0
bin	-0.33333333333333	0
bin	-0.3	0
bin	-0.26666666666667	0
bin	-0.23333333333333	0
bin	-0.2	0
bin	-0.16666666666667	0
bin	-0.13333333333333	0
bin	-0.1	0
bin	-0.066666666666667	0
bin	-0.033333333333333	0
bin	0	1
bin	0.033333333333333	0
bin	0.066666666666667	0
bin	0.1	0
bin	0.13333333333333	0
bin	0.16666666666667	0
bin	0.2	0
bin	0.23333333333333	0
bin	0.26666666666667	0
bin	0.3	0
bin	0.33333333333333	0
bin	0.36666666666667	0
bin	0.4	0
bin	0.43333333333333	0
bin	0.46666666666667	0
bin	0.5	0
scalar BundledNetworks.host[61].wlan[0].radio 	bitrate:min 	54000000
attr interpolationmode  sample-hold
attr title  "tx bitrate, min"
attr unit  bps
scalar BundledNetworks.host[61].wlan[0].radio 	bitrate:max 	54000000
attr interpolationmode  sample-hold
attr title  "tx bitrate, max"
attr unit  bps
scalar BundledNetworks.host[61].wlan[0].radio 	bitrate:timeavg 	54000000
attr interpolationmode  sample-hold
attr title  "tx bitrate, timeavg"
attr unit  bps
statistic BundledNetworks.host[61].aodv 	NumSentAODVPackets
field count 388
field mean 194.5
field stddev 112.15019690873
field sum 75466
field sqrsum 19545694
field min 1
field max 388
statistic BundledNetworks.host[61].aodv 	NumReceivedAODVPackets
field count 29
field mean 15
field stddev 8.5146931829632
field sum 435
field sqrsum 8555
field min 1
field max 29
scalar BundledNetworks.host[61].aodv 	"Number of LinkBreaks" 	0
scalar BundledNetworks.host[61].aodv 	RERRSentNow 	0
scalar BundledNetworks.host[61].aodv 	HelloMsg:count 	0
scalar BundledNetworks.host[62].wlan[0].mac 	"number of received packets" 	0
scalar BundledNetworks.host[62].wlan[0].mac 	"number of collisions" 	1477
scalar BundledNetworks.host[62].wlan[0].mac 	"number of internal collisions" 	0
scalar BundledNetworks.host[62].wlan[0].mac 	"number of retry for AC 0" 	0
scalar BundledNetworks.host[62].wlan[0].mac 	"sent and received bits" 	15376
scalar BundledNetworks.host[62].wlan[0].mac 	"sent packet within AC 0" 	0
scalar BundledNetworks.host[62].wlan[0].mac 	"sent in TXOP " 	0
scalar BundledNetworks.host[62].wlan[0].mac 	"sentWithoutRetry AC 0" 	0
scalar BundledNetworks.host[62].wlan[0].mac 	"numGivenUp AC 0" 	0
scalar BundledNetworks.host[62].wlan[0].mac 	"numDropped AC 0" 	0
scalar BundledNetworks.host[62].wlan[0].radio 	lossRate:min 	0
attr interpolationmode  backward-sample-hold
attr title  "packet loss rate, min"
scalar BundledNetworks.host[62].wlan[0].radio 	lossRate:max 	0.42
attr interpolationmode  backward-sample-hold
attr title  "packet loss rate, max"
scalar BundledNetworks.host[62].wlan[0].radio 	lossRate:timeavg 	0.19584279823232
attr interpolationmode  backward-sample-hold
attr title  "packet loss rate, timeavg"
statistic BundledNetworks.host[62].wlan[0].radio 	channelNo:histogram
field count 1
field mean 0
field stddev -nan
field sum 0
field sqrsum 0
field min 0
field max 0
attr interpolationmode  sample-hold
attr title  "channel no, histogram"
bin	-INF	0
bin	-0.5	0
bin	-0.46666666666667	0
bin	-0.43333333333333	0
bin	-0.4	0
bin	-0.36666666666667	0
bin	-0.33333333333333	0
bin	-0.3	0
bin	-0.26666666666667	0
bin	-0.23333333333333	0
bin	-0.2	0
bin	-0.16666666666667	0
bin	-0.13333333333333	0
bin	-0.1	0
bin	-0.066666666666667	0
bin	-0.033333333333333	0
bin	0	1
bin	0.033333333333333	0
bin	0.066666666666667	0
bin	0.1	0
bin	0.13333333333333	0
bin	0.16666666666667	0
bin	0.2	0
bin	0.23333333333333	0
bin	0.26666666666667	0
bin	0.3	0
bin	0.33333333333333	0
bin	0.36666666666667	0
bin	0.4	0
bin	0.43333333333333	0
bin	0.46666666666667	0
bin	0.5	0
scalar BundledNetworks.host[62].wlan[0].radio 	bitrate:min 	54000000
attr interpolationmode  sample-hold
attr title  "tx bitrate, min"
attr unit  bps
scalar BundledNetworks.host[62].wlan[0].radio 	bitrate:max 	54000000
attr interpolationmode  sample-hold
attr title  "tx bitrate, max"
attr unit  bps
scalar BundledNetworks.host[62].wlan[0].radio 	bitrate:timeavg 	54000000
attr interpolationmode  sample-hold
attr title  "tx bitrate, timeavg"
attr unit  bps
statistic BundledNetworks.host[62].aodv 	NumSentAODVPackets
field count 362
field mean 181.5
field stddev 104.64463674742
field sum 65703
field sqrsum 15878225
field min 1
field max 362
statistic BundledNetworks.host[62].aodv 	NumReceivedAODVPackets
field count 31
field mean 16
field stddev 9.0921211313239
field sum 496
field sqrsum 10416
field min 1
field max 31
scalar BundledNetworks.host[62].aodv 	"Number of LinkBreaks" 	0
scalar BundledNetworks.host[62].aodv 	RERRSentNow 	0
scalar BundledNetworks.host[62].aodv 	HelloMsg:count 	0
scalar BundledNetworks.host[63].wlan[0].mac 	"number of received packets" 	2
scalar BundledNetworks.host[63].wlan[0].mac 	"number of collisions" 	1671
scalar BundledNetworks.host[63].wlan[0].mac 	"number of internal collisions" 	0
scalar BundledNetworks.host[63].wlan[0].mac 	"number of retry for AC 0" 	0
scalar BundledNetworks.host[63].wlan[0].mac 	"sent and received bits" 	16992
scalar BundledNetworks.host[63].wlan[0].mac 	"sent packet within AC 0" 	2
scalar BundledNetworks.host[63].wlan[0].mac 	"sent in TXOP " 	0
scalar BundledNetworks.host[63].wlan[0].mac 	"sentWithoutRetry AC 0" 	2
scalar BundledNetworks.host[63].wlan[0].mac 	"numGivenUp AC 0" 	0
scalar BundledNetworks.host[63].wlan[0].mac 	"numDropped AC 0" 	0
scalar BundledNetworks.host[63].wlan[0].radio 	lossRate:min 	0
attr interpolationmode  backward-sample-hold
attr title  "packet loss rate, min"
scalar BundledNetworks.host[63].wlan[0].radio 	lossRate:max 	0.5
attr interpolationmode  backward-sample-hold
attr title  "packet loss rate, max"
scalar BundledNetworks.host[63].wlan[0].radio 	lossRate:timeavg 	0.082521747615736
attr interpolationmode  backward-sample-hold
attr title  "packet loss rate, timeavg"
statistic BundledNetworks.host[63].wlan[0].radio 	channelNo:histogram
field count 1
field mean 0
field stddev -nan
field sum 0
field sqrsum 0
field min 0
field max 0
attr interpolationmode  sample-hold
attr title  "channel no, histogram"
bin	-INF	0
bin	-0.5	0
bin	-0.46666666666667	0
bin	-0.43333333333333	0
bin	-0.4	0
bin	-0.36666666666667	0
bin	-0.33333333333333	0
bin	-0.3	0
bin	-0.26666666666667	0
bin	-0.23333333333333	0
bin	-0.2	0
bin	-0.16666666666667	0
bin	-0.13333333333333	0
bin	-0.1	0
bin	-0.066666666666667	0
bin	-0.033333333333333	0
bin	0	1
bin	0.033333333333333	0
bin	0.066666666666667	0
bin	0.1	0
bin	0.13333333333333	0
bin	0.16666666666667	0
bin	0.2	0
bin	0.23333333333333	0
bin	0.26666666666667	0
bin	0.3	0
bin	0.33333333333333	0
bin	0.36666666666667	0
bin	0.4	0
bin	0.43333333333333	0
bin	0.46666666666667	0
bin	0.5	0
scalar BundledNetworks.host[63].wlan[0].radio 	bitrate:min 	54000000
attr interpolationmode  sample-hold
attr title  "tx bitrate, min"
attr unit  bps
scalar BundledNetworks.host[63].wlan[0].radio 	bitrate:max 	54000000
attr interpolationmode  sample-hold
attr title  "tx bitrate, max"
attr unit  bps
scalar BundledNetworks.host[63].wlan[0].radio 	bitrate:timeavg 	54000000
attr interpolationmode  sample-hold
attr title  "tx bitrate, timeavg"
attr unit  bps
statistic BundledNetworks.host[63].aodv 	NumSentAODVPackets
field count 369
field mean 185
field stddev 106.66536457539
field sum 68265
field sqrsum 16815945
field min 1
field max 369
statistic BundledNetworks.host[63].aodv 	NumReceivedAODVPackets
field count 32
field mean 16.5
field stddev 9.3808315196469
field sum 528
field sqrsum 11440
field min 1
field max 32
scalar BundledNetworks.host[63].aodv 	"Number of LinkBreaks" 	0
scalar BundledNetworks.host[63].aodv 	RERRSentNow 	0
scalar BundledNetworks.host[63].aodv 	HelloMsg:count 	0
scalar BundledNetworks.host[64].wlan[0].mac 	"number of received packets" 	107
scalar BundledNetworks.host[64].wlan[0].mac 	"number of collisions" 	1239
scalar BundledNetworks.host[64].wlan[0].mac 	"number of internal collisions" 	0
scalar BundledNetworks.host[64].wlan[0].mac 	"number of retry for AC 0" 	10
scalar BundledNetworks.host[64].wlan[0].mac 	"sent and received bits" 	505872
scalar BundledNetworks.host[64].wlan[0].mac 	"sent packet within AC 0" 	107
scalar BundledNetworks.host[64].wlan[0].mac 	"sent in TXOP " 	0
scalar BundledNetworks.host[64].wlan[0].mac 	"sentWithoutRetry AC 0" 	103
scalar BundledNetworks.host[64].wlan[0].mac 	"numGivenUp AC 0" 	0
scalar BundledNetworks.host[64].wlan[0].mac 	"numDropped AC 0" 	0
scalar BundledNetworks.host[64].wlan[0].radio 	lossRate:min 	0
attr interpolationmode  backward-sample-hold
attr title  "packet loss rate, min"
scalar BundledNetworks.host[64].wlan[0].radio 	lossRate:max 	0.5
attr interpolationmode  backward-sample-hold
attr title  "packet loss rate, max"
scalar BundledNetworks.host[64].wlan[0].radio 	lossRate:timeavg 	0.069396581638663
attr interpolationmode  backward-sample-hold
attr title  "packet loss rate, timeavg"
statistic BundledNetworks.host[64].wlan[0].radio 	channelNo:histogram
field count 1
field mean 0
field stddev -nan
field sum 0
field sqrsum 0
field min 0
field max 0
attr interpolationmode  sample-hold
attr title  "channel no, histogram"
bin	-INF	0
bin	-0.5	0
bin	-0.46666666666667	0
bin	-0.43333333333333	0
bin	-0.4	0
bin	-0.36666666666667	0
bin	-0.33333333333333	0
bin	-0.3	0
bin	-0.26666666666667	0
bin	-0.23333333333333	0
bin	-0.2	0
bin	-0.16666666666667	0
bin	-0.13333333333333	0
bin	-0.1	0
bin	-0.066666666666667	0
bin	-0.033333333333333	0
bin	0	1
bin	0.033333333333333	0
bin	0.066666666666667	0
bin	0.1	0
bin	0.13333333333333	0
bin	0.16666666666667	0
bin	0.2	0
bin	0.23333333333333	0
bin	0.26666666666667	0
bin	0.3	0
bin	0.33333333333333	0
bin	0.36666666666667	0
bin	0.4	0
bin	0.43333333333333	0
bin	0.46666666666667	0
bin	0.5	0
scalar BundledNetworks.host[64].wlan[0].radio 	bitrate:min 	54000000
attr interpolationmode  sample-hold
attr title  "tx bitrate, min"
attr unit  bps
scalar BundledNetworks.host[64].wlan[0].radio 	bitrate:max 	54000000
attr interpolationmode  sample-hold
attr title  "tx bitrate, max"
attr unit  bps
scalar BundledNetworks.host[64].wlan[0].radio 	bitrate:timeavg 	54000000
attr interpolationmode  sample-hold
attr title  "tx bitrate, timeavg"
attr unit  bps
statistic BundledNetworks.host[64].aodv 	NumSentAODVPackets
field count 314
field mean 157.5
field stddev 90.788215094251
field sum 49455
field sqrsum 10369065
field min 1
field max 314
statistic BundledNetworks.host[64].aodv 	NumReceivedAODVPackets
field count 32
field mean 16.5
field stddev 9.3808315196469
field sum 528
field sqrsum 11440
field min 1
field max 32
scalar BundledNetworks.host[64].aodv 	"Number of LinkBreaks" 	0
scalar BundledNetworks.host[64].aodv 	RERRSentNow 	0
scalar BundledNetworks.host[64].aodv 	HelloMsg:count 	0
