version 2
run General-3-20150723-11:47:39-6277
attr configname General
attr datetime 20150723-11:47:39
attr experiment General
attr inifile omnetpp.ini
attr iterationvars $0=0.1
attr iterationvars2 "$0=0.1, $repetition=0"
attr measurement $0=0.1
attr network SemiDecentralized
attr processid 6277
attr repetition 0
attr replication #0
attr resultdir StaticThirtySourceDest
attr runnumber 3
attr seedset 3

scalar SemiDecentralized.host[0].wlan[0].mac 	"number of receiveunsigned d packets" 	10294
scalar SemiDecentralized.host[0].wlan[0].mac 	"number of collisions" 	24391
scalar SemiDecentralized.host[0].wlan[0].mac 	"number of internal collisions" 	0
scalar SemiDecentralized.host[0].wlan[0].mac 	"number of retry for AC 0" 	3142
scalar SemiDecentralized.host[0].wlan[0].mac 	"sent and received bits" 	37493584
scalar SemiDecentralized.host[0].wlan[0].mac 	"sent packet within AC 0" 	8044
scalar SemiDecentralized.host[0].wlan[0].mac 	"sent in TXOP " 	0
scalar SemiDecentralized.host[0].wlan[0].mac 	"sentWithoutRetry AC 0" 	6550
scalar SemiDecentralized.host[0].wlan[0].mac 	"numGivenUp AC 0" 	36
scalar SemiDecentralized.host[0].wlan[0].mac 	"numDropped AC 0" 	0
scalar SemiDecentralized.host[0].wlan[0].radio 	lossRate:min 	0
attr interpolationmode  backward-sample-hold
attr title  "packet loss rate, min"
scalar SemiDecentralized.host[0].wlan[0].radio 	lossRate:max 	0.54
attr interpolationmode  backward-sample-hold
attr title  "packet loss rate, max"
scalar SemiDecentralized.host[0].wlan[0].radio 	lossRate:timeavg 	0.18495579862345
attr interpolationmode  backward-sample-hold
attr title  "packet loss rate, timeavg"
statistic SemiDecentralized.host[0].wlan[0].radio 	channelNo:histogram
field count 1
field mean 0
field stddev -nan
field sum 0
field sqrsum 0
field min 0
field max 0
attr interpolationmode  sample-hold
attr title  "channel no, histogram"
bin	-INF	0
bin	-0.5	0
bin	-0.46666666666667	0
bin	-0.43333333333333	0
bin	-0.4	0
bin	-0.36666666666667	0
bin	-0.33333333333333	0
bin	-0.3	0
bin	-0.26666666666667	0
bin	-0.23333333333333	0
bin	-0.2	0
bin	-0.16666666666667	0
bin	-0.13333333333333	0
bin	-0.1	0
bin	-0.066666666666667	0
bin	-0.033333333333333	0
bin	0	1
bin	0.033333333333333	0
bin	0.066666666666667	0
bin	0.1	0
bin	0.13333333333333	0
bin	0.16666666666667	0
bin	0.2	0
bin	0.23333333333333	0
bin	0.26666666666667	0
bin	0.3	0
bin	0.33333333333333	0
bin	0.36666666666667	0
bin	0.4	0
bin	0.43333333333333	0
bin	0.46666666666667	0
bin	0.5	0
scalar SemiDecentralized.host[0].wlan[0].radio 	bitrate:min 	54000000
attr interpolationmode  sample-hold
attr title  "tx bitrate, min"
attr unit  bps
scalar SemiDecentralized.host[0].wlan[0].radio 	bitrate:max 	54000000
attr interpolationmode  sample-hold
attr title  "tx bitrate, max"
attr unit  bps
scalar SemiDecentralized.host[0].wlan[0].radio 	bitrate:timeavg 	54000000
attr interpolationmode  sample-hold
attr title  "tx bitrate, timeavg"
attr unit  bps
statistic SemiDecentralized.host[0].udpApp[0] 	endToEndDelay:histogram
field count 1677
field mean 0.011266592381134
field stddev 0.048648124252224
field sum 18.894075423161
field sqrsum 4.1793604749146
field min 0.001790416052
field max 1.01223093352
attr interpolationmode  none
attr source  messageAge(rcvdPk)
attr title  "end-to-end delay, histogram"
attr unit  s
bin	-INF	0
bin	-0.0049390604765	0
bin	-0.0038772963684333	0
bin	-0.0028155322603667	0
bin	-0.0017537681523	0
bin	-0.00069200404423333	0
bin	0.00036976006383333	0
bin	0.0014315241719	14
bin	0.0024932882799667	110
bin	0.0035550523880333	199
bin	0.0046168164961	251
bin	0.0056785806041667	238
bin	0.0067403447122333	251
bin	0.0078021088203	111
bin	0.0088638729283667	82
bin	0.0099256370364333	81
bin	0.0109874011445	91
bin	0.012049165252567	62
bin	0.013110929360633	54
bin	0.0141726934687	32
bin	0.015234457576767	27
bin	0.016296221684833	14
bin	0.0173579857929	13
bin	0.018419749900967	12
bin	0.019481514009033	4
bin	0.0205432781171	4
bin	0.021605042225167	2
bin	0.022666806333233	1
bin	0.0237285704413	0
bin	0.024790334549367	1
bin	0.025852098657433	1
bin	0.0269138627655	22
scalar SemiDecentralized.host[0].udp 	droppedPkBadChecksum:count 	0
attr interpolationmode  none
attr title  "packets dropped (checksum error), count"
scalar SemiDecentralized.host[0].udp 	droppedPkWrongPort:count 	0
attr interpolationmode  none
attr title  "packets dropped (wrong port), count"
scalar SemiDecentralized.host[0].udp 	passedUpPk:count 	1677
attr interpolationmode  none
attr title  "packets passed up, count"
scalar SemiDecentralized.host[0].udp 	rcvdPk:count 	1677
attr interpolationmode  none
attr source  rcvdPk
attr title  "packets received, count"
scalar SemiDecentralized.host[0].udp 	rcvdPk:sum(packetBytes) 	872040
attr interpolationmode  none
attr source  rcvdPk
attr title  "packets received, sum(packetBytes)"
scalar SemiDecentralized.host[0].udp 	sentPk:count 	0
attr interpolationmode  none
attr source  sentPk
attr title  "packets sent, count"
scalar SemiDecentralized.host[0].udp 	sentPk:sum(packetBytes) 	0
attr interpolationmode  none
attr source  sentPk
attr title  "packets sent, sum(packetBytes)"
statistic SemiDecentralized.host[0].aodv 	NumSentAODVPackets
field count 583
field mean 292
field stddev 168.44187919477
field sum 170236
field sqrsum 66221804
field min 1
field max 583
statistic SemiDecentralized.host[0].aodv 	NumReceivedAODVPackets
field count 36
field mean 18.5
field stddev 10.535653752853
field sum 666
field sqrsum 16206
field min 1
field max 36
scalar SemiDecentralized.host[0].aodv 	"Number of LinkBreaks" 	36
scalar SemiDecentralized.host[0].aodv 	RERRSentNow 	36
scalar SemiDecentralized.host[0].rsmgmnt 	"Number Received RouteResponses" 	152
scalar SemiDecentralized.host[0].rsmgmnt 	"Number Sent RREQs" 	152
scalar SemiDecentralized.host[1].wlan[0].mac 	"number of receiveunsigned d packets" 	0
scalar SemiDecentralized.host[1].wlan[0].mac 	"number of collisions" 	21780
scalar SemiDecentralized.host[1].wlan[0].mac 	"number of internal collisions" 	0
scalar SemiDecentralized.host[1].wlan[0].mac 	"number of retry for AC 0" 	2689
scalar SemiDecentralized.host[1].wlan[0].mac 	"sent and received bits" 	8759104
scalar SemiDecentralized.host[1].wlan[0].mac 	"sent packet within AC 0" 	1869
scalar SemiDecentralized.host[1].wlan[0].mac 	"sent in TXOP " 	0
scalar SemiDecentralized.host[1].wlan[0].mac 	"sentWithoutRetry AC 0" 	631
scalar SemiDecentralized.host[1].wlan[0].mac 	"numGivenUp AC 0" 	4
scalar SemiDecentralized.host[1].wlan[0].mac 	"numDropped AC 0" 	0
scalar SemiDecentralized.host[1].wlan[0].radio 	lossRate:min 	0
attr interpolationmode  backward-sample-hold
attr title  "packet loss rate, min"
scalar SemiDecentralized.host[1].wlan[0].radio 	lossRate:max 	0.56
attr interpolationmode  backward-sample-hold
attr title  "packet loss rate, max"
scalar SemiDecentralized.host[1].wlan[0].radio 	lossRate:timeavg 	0.22701176475136
attr interpolationmode  backward-sample-hold
attr title  "packet loss rate, timeavg"
statistic SemiDecentralized.host[1].wlan[0].radio 	channelNo:histogram
field count 1
field mean 0
field stddev -nan
field sum 0
field sqrsum 0
field min 0
field max 0
attr interpolationmode  sample-hold
attr title  "channel no, histogram"
bin	-INF	0
bin	-0.5	0
bin	-0.46666666666667	0
bin	-0.43333333333333	0
bin	-0.4	0
bin	-0.36666666666667	0
bin	-0.33333333333333	0
bin	-0.3	0
bin	-0.26666666666667	0
bin	-0.23333333333333	0
bin	-0.2	0
bin	-0.16666666666667	0
bin	-0.13333333333333	0
bin	-0.1	0
bin	-0.066666666666667	0
bin	-0.033333333333333	0
bin	0	1
bin	0.033333333333333	0
bin	0.066666666666667	0
bin	0.1	0
bin	0.13333333333333	0
bin	0.16666666666667	0
bin	0.2	0
bin	0.23333333333333	0
bin	0.26666666666667	0
bin	0.3	0
bin	0.33333333333333	0
bin	0.36666666666667	0
bin	0.4	0
bin	0.43333333333333	0
bin	0.46666666666667	0
bin	0.5	0
scalar SemiDecentralized.host[1].wlan[0].radio 	bitrate:min 	54000000
attr interpolationmode  sample-hold
attr title  "tx bitrate, min"
attr unit  bps
scalar SemiDecentralized.host[1].wlan[0].radio 	bitrate:max 	54000000
attr interpolationmode  sample-hold
attr title  "tx bitrate, max"
attr unit  bps
scalar SemiDecentralized.host[1].wlan[0].radio 	bitrate:timeavg 	54000000
attr interpolationmode  sample-hold
attr title  "tx bitrate, timeavg"
attr unit  bps
scalar SemiDecentralized.host[1].udpApp[0] 	"packets sent" 	1873
scalar SemiDecentralized.host[1].udpApp[0] 	"packets received" 	0
statistic SemiDecentralized.host[1].udpApp[0] 	rcvdPkLifetime:stats
field count 0
field mean -nan
field stddev -nan
field sum 0
field sqrsum 0
field min -nan
field max -nan
attr interpolationmode  none
attr source  messageAge(rcvdPk)
attr title  "received packet lifetime, stats"
attr unit  s
scalar SemiDecentralized.host[1].udp 	droppedPkBadChecksum:count 	0
attr interpolationmode  none
attr title  "packets dropped (checksum error), count"
scalar SemiDecentralized.host[1].udp 	droppedPkWrongPort:count 	0
attr interpolationmode  none
attr title  "packets dropped (wrong port), count"
scalar SemiDecentralized.host[1].udp 	passedUpPk:count 	0
attr interpolationmode  none
attr title  "packets passed up, count"
scalar SemiDecentralized.host[1].udp 	rcvdPk:count 	0
attr interpolationmode  none
attr source  rcvdPk
attr title  "packets received, count"
scalar SemiDecentralized.host[1].udp 	rcvdPk:sum(packetBytes) 	0
attr interpolationmode  none
attr source  rcvdPk
attr title  "packets received, sum(packetBytes)"
scalar SemiDecentralized.host[1].udp 	sentPk:count 	1873
attr interpolationmode  none
attr source  sentPk
attr title  "packets sent, count"
scalar SemiDecentralized.host[1].udp 	sentPk:sum(packetBytes) 	973960
attr interpolationmode  none
attr source  sentPk
attr title  "packets sent, sum(packetBytes)"
statistic SemiDecentralized.host[1].aodv 	NumSentAODVPackets
field count 13
field mean 7
field stddev 3.8944404818493
field sum 91
field sqrsum 819
field min 1
field max 13
statistic SemiDecentralized.host[1].aodv 	NumReceivedAODVPackets
field count 5
field mean 3
field stddev 1.5811388300842
field sum 15
field sqrsum 55
field min 1
field max 5
scalar SemiDecentralized.host[1].aodv 	"Number of LinkBreaks" 	4
scalar SemiDecentralized.host[1].aodv 	RERRSentNow 	4
scalar SemiDecentralized.host[1].rsmgmnt 	"Number Received RouteResponses" 	13
scalar SemiDecentralized.host[1].rsmgmnt 	"Number Sent RREQs" 	13
scalar SemiDecentralized.host[2].wlan[0].mac 	"number of receiveunsigned d packets" 	3131
scalar SemiDecentralized.host[2].wlan[0].mac 	"number of collisions" 	15850
scalar SemiDecentralized.host[2].wlan[0].mac 	"number of internal collisions" 	0
scalar SemiDecentralized.host[2].wlan[0].mac 	"number of retry for AC 0" 	369
scalar SemiDecentralized.host[2].wlan[0].mac 	"sent and received bits" 	5751888
scalar SemiDecentralized.host[2].wlan[0].mac 	"sent packet within AC 0" 	1223
scalar SemiDecentralized.host[2].wlan[0].mac 	"sent in TXOP " 	0
scalar SemiDecentralized.host[2].wlan[0].mac 	"sentWithoutRetry AC 0" 	1073
scalar SemiDecentralized.host[2].wlan[0].mac 	"numGivenUp AC 0" 	13
scalar SemiDecentralized.host[2].wlan[0].mac 	"numDropped AC 0" 	0
scalar SemiDecentralized.host[2].wlan[0].radio 	lossRate:min 	0
attr interpolationmode  backward-sample-hold
attr title  "packet loss rate, min"
scalar SemiDecentralized.host[2].wlan[0].radio 	lossRate:max 	0.54
attr interpolationmode  backward-sample-hold
attr title  "packet loss rate, max"
scalar SemiDecentralized.host[2].wlan[0].radio 	lossRate:timeavg 	0.21383789683892
attr interpolationmode  backward-sample-hold
attr title  "packet loss rate, timeavg"
statistic SemiDecentralized.host[2].wlan[0].radio 	channelNo:histogram
field count 1
field mean 0
field stddev -nan
field sum 0
field sqrsum 0
field min 0
field max 0
attr interpolationmode  sample-hold
attr title  "channel no, histogram"
bin	-INF	0
bin	-0.5	0
bin	-0.46666666666667	0
bin	-0.43333333333333	0
bin	-0.4	0
bin	-0.36666666666667	0
bin	-0.33333333333333	0
bin	-0.3	0
bin	-0.26666666666667	0
bin	-0.23333333333333	0
bin	-0.2	0
bin	-0.16666666666667	0
bin	-0.13333333333333	0
bin	-0.1	0
bin	-0.066666666666667	0
bin	-0.033333333333333	0
bin	0	1
bin	0.033333333333333	0
bin	0.066666666666667	0
bin	0.1	0
bin	0.13333333333333	0
bin	0.16666666666667	0
bin	0.2	0
bin	0.23333333333333	0
bin	0.26666666666667	0
bin	0.3	0
bin	0.33333333333333	0
bin	0.36666666666667	0
bin	0.4	0
bin	0.43333333333333	0
bin	0.46666666666667	0
bin	0.5	0
scalar SemiDecentralized.host[2].wlan[0].radio 	bitrate:min 	54000000
attr interpolationmode  sample-hold
attr title  "tx bitrate, min"
attr unit  bps
scalar SemiDecentralized.host[2].wlan[0].radio 	bitrate:max 	54000000
attr interpolationmode  sample-hold
attr title  "tx bitrate, max"
attr unit  bps
scalar SemiDecentralized.host[2].wlan[0].radio 	bitrate:timeavg 	54000000
attr interpolationmode  sample-hold
attr title  "tx bitrate, timeavg"
attr unit  bps
statistic SemiDecentralized.host[2].udpApp[0] 	endToEndDelay:histogram
field count 1755
field mean 0.0026404770751584
field stddev 0.0037677690196086
field sum 4.634037266903
field sqrsum 0.037135999426191
field min 0.000579060471
field max 0.051651598613
attr interpolationmode  none
attr source  messageAge(rcvdPk)
attr title  "end-to-end delay, histogram"
attr unit  s
bin	-INF	0
bin	-0.002843964969	0
bin	-0.0023848848684667	0
bin	-0.0019258047679333	0
bin	-0.0014667246674	0
bin	-0.0010076445668667	0
bin	-0.00054856446633333	0
bin	-8.94843658e-05	0
bin	0.00036959573473333	211
bin	0.00082867583526667	390
bin	0.0012877559358	365
bin	0.0017468360363333	231
bin	0.0022059161368667	162
bin	0.0026649962374	122
bin	0.0031240763379333	18
bin	0.0035831564384667	11
bin	0.004042236539	16
bin	0.0045013166395333	22
bin	0.0049603967400667	27
bin	0.0054194768406	32
bin	0.0058785569411333	25
bin	0.0063376370416667	22
bin	0.0067967171422	18
bin	0.0072557972427333	8
bin	0.0077148773432667	8
bin	0.0081739574438	3
bin	0.0086330375443333	3
bin	0.0090921176448667	5
bin	0.0095511977454	2
bin	0.010010277845933	1
bin	0.010469357946467	4
bin	0.010928438047	49
scalar SemiDecentralized.host[2].udp 	droppedPkBadChecksum:count 	0
attr interpolationmode  none
attr title  "packets dropped (checksum error), count"
scalar SemiDecentralized.host[2].udp 	droppedPkWrongPort:count 	0
attr interpolationmode  none
attr title  "packets dropped (wrong port), count"
scalar SemiDecentralized.host[2].udp 	passedUpPk:count 	1755
attr interpolationmode  none
attr title  "packets passed up, count"
scalar SemiDecentralized.host[2].udp 	rcvdPk:count 	1755
attr interpolationmode  none
attr source  rcvdPk
attr title  "packets received, count"
scalar SemiDecentralized.host[2].udp 	rcvdPk:sum(packetBytes) 	912600
attr interpolationmode  none
attr source  rcvdPk
attr title  "packets received, sum(packetBytes)"
scalar SemiDecentralized.host[2].udp 	sentPk:count 	0
attr interpolationmode  none
attr source  sentPk
attr title  "packets sent, count"
scalar SemiDecentralized.host[2].udp 	sentPk:sum(packetBytes) 	0
attr interpolationmode  none
attr source  sentPk
attr title  "packets sent, sum(packetBytes)"
statistic SemiDecentralized.host[2].aodv 	NumSentAODVPackets
field count 122
field mean 61.5
field stddev 35.362409420174
field sum 7503
field sqrsum 612745
field min 1
field max 122
statistic SemiDecentralized.host[2].aodv 	NumReceivedAODVPackets
field count 13
field mean 7
field stddev 3.8944404818493
field sum 91
field sqrsum 819
field min 1
field max 13
scalar SemiDecentralized.host[2].aodv 	"Number of LinkBreaks" 	13
scalar SemiDecentralized.host[2].aodv 	RERRSentNow 	13
scalar SemiDecentralized.host[2].rsmgmnt 	"Number Received RouteResponses" 	26
scalar SemiDecentralized.host[2].rsmgmnt 	"Number Sent RREQs" 	26
scalar SemiDecentralized.host[3].wlan[0].mac 	"number of receiveunsigned d packets" 	5600
scalar SemiDecentralized.host[3].wlan[0].mac 	"number of collisions" 	43777
scalar SemiDecentralized.host[3].wlan[0].mac 	"number of internal collisions" 	0
scalar SemiDecentralized.host[3].wlan[0].mac 	"number of retry for AC 0" 	2461
scalar SemiDecentralized.host[3].wlan[0].mac 	"sent and received bits" 	34445584
scalar SemiDecentralized.host[3].wlan[0].mac 	"sent packet within AC 0" 	7387
scalar SemiDecentralized.host[3].wlan[0].mac 	"sent in TXOP " 	0
scalar SemiDecentralized.host[3].wlan[0].mac 	"sentWithoutRetry AC 0" 	6060
scalar SemiDecentralized.host[3].wlan[0].mac 	"numGivenUp AC 0" 	20
scalar SemiDecentralized.host[3].wlan[0].mac 	"numDropped AC 0" 	0
scalar SemiDecentralized.host[3].wlan[0].radio 	lossRate:min 	0
attr interpolationmode  backward-sample-hold
attr title  "packet loss rate, min"
scalar SemiDecentralized.host[3].wlan[0].radio 	lossRate:max 	0.7
attr interpolationmode  backward-sample-hold
attr title  "packet loss rate, max"
scalar SemiDecentralized.host[3].wlan[0].radio 	lossRate:timeavg 	0.22656159827353
attr interpolationmode  backward-sample-hold
attr title  "packet loss rate, timeavg"
statistic SemiDecentralized.host[3].wlan[0].radio 	channelNo:histogram
field count 1
field mean 0
field stddev -nan
field sum 0
field sqrsum 0
field min 0
field max 0
attr interpolationmode  sample-hold
attr title  "channel no, histogram"
bin	-INF	0
bin	-0.5	0
bin	-0.46666666666667	0
bin	-0.43333333333333	0
bin	-0.4	0
bin	-0.36666666666667	0
bin	-0.33333333333333	0
bin	-0.3	0
bin	-0.26666666666667	0
bin	-0.23333333333333	0
bin	-0.2	0
bin	-0.16666666666667	0
bin	-0.13333333333333	0
bin	-0.1	0
bin	-0.066666666666667	0
bin	-0.033333333333333	0
bin	0	1
bin	0.033333333333333	0
bin	0.066666666666667	0
bin	0.1	0
bin	0.13333333333333	0
bin	0.16666666666667	0
bin	0.2	0
bin	0.23333333333333	0
bin	0.26666666666667	0
bin	0.3	0
bin	0.33333333333333	0
bin	0.36666666666667	0
bin	0.4	0
bin	0.43333333333333	0
bin	0.46666666666667	0
bin	0.5	0
scalar SemiDecentralized.host[3].wlan[0].radio 	bitrate:min 	54000000
attr interpolationmode  sample-hold
attr title  "tx bitrate, min"
attr unit  bps
scalar SemiDecentralized.host[3].wlan[0].radio 	bitrate:max 	54000000
attr interpolationmode  sample-hold
attr title  "tx bitrate, max"
attr unit  bps
scalar SemiDecentralized.host[3].wlan[0].radio 	bitrate:timeavg 	54000000
attr interpolationmode  sample-hold
attr title  "tx bitrate, timeavg"
attr unit  bps
scalar SemiDecentralized.host[3].udpApp[0] 	"packets sent" 	1890
scalar SemiDecentralized.host[3].udpApp[0] 	"packets received" 	0
statistic SemiDecentralized.host[3].udpApp[0] 	rcvdPkLifetime:stats
field count 0
field mean -nan
field stddev -nan
field sum 0
field sqrsum 0
field min -nan
field max -nan
attr interpolationmode  none
attr source  messageAge(rcvdPk)
attr title  "received packet lifetime, stats"
attr unit  s
scalar SemiDecentralized.host[3].udp 	droppedPkBadChecksum:count 	0
attr interpolationmode  none
attr title  "packets dropped (checksum error), count"
scalar SemiDecentralized.host[3].udp 	droppedPkWrongPort:count 	0
attr interpolationmode  none
attr title  "packets dropped (wrong port), count"
scalar SemiDecentralized.host[3].udp 	passedUpPk:count 	0
attr interpolationmode  none
attr title  "packets passed up, count"
scalar SemiDecentralized.host[3].udp 	rcvdPk:count 	0
attr interpolationmode  none
attr source  rcvdPk
attr title  "packets received, count"
scalar SemiDecentralized.host[3].udp 	rcvdPk:sum(packetBytes) 	0
attr interpolationmode  none
attr source  rcvdPk
attr title  "packets received, sum(packetBytes)"
scalar SemiDecentralized.host[3].udp 	sentPk:count 	1890
attr interpolationmode  none
attr source  sentPk
attr title  "packets sent, count"
scalar SemiDecentralized.host[3].udp 	sentPk:sum(packetBytes) 	982800
attr interpolationmode  none
attr source  sentPk
attr title  "packets sent, sum(packetBytes)"
statistic SemiDecentralized.host[3].aodv 	NumSentAODVPackets
field count 145
field mean 73
field stddev 42.00198408012
field sum 10585
field sqrsum 1026745
field min 1
field max 145
statistic SemiDecentralized.host[3].aodv 	NumReceivedAODVPackets
field count 20
field mean 10.5
field stddev 5.9160797830996
field sum 210
field sqrsum 2870
field min 1
field max 20
scalar SemiDecentralized.host[3].aodv 	"Number of LinkBreaks" 	20
scalar SemiDecentralized.host[3].aodv 	RERRSentNow 	19
scalar SemiDecentralized.host[3].rsmgmnt 	"Number Received RouteResponses" 	67
scalar SemiDecentralized.host[3].rsmgmnt 	"Number Sent RREQs" 	67
scalar SemiDecentralized.host[4].wlan[0].mac 	"number of receiveunsigned d packets" 	2746
scalar SemiDecentralized.host[4].wlan[0].mac 	"number of collisions" 	25020
scalar SemiDecentralized.host[4].wlan[0].mac 	"number of internal collisions" 	0
scalar SemiDecentralized.host[4].wlan[0].mac 	"number of retry for AC 0" 	358
scalar SemiDecentralized.host[4].wlan[0].mac 	"sent and received bits" 	4494768
scalar SemiDecentralized.host[4].wlan[0].mac 	"sent packet within AC 0" 	953
scalar SemiDecentralized.host[4].wlan[0].mac 	"sent in TXOP " 	0
scalar SemiDecentralized.host[4].wlan[0].mac 	"sentWithoutRetry AC 0" 	815
scalar SemiDecentralized.host[4].wlan[0].mac 	"numGivenUp AC 0" 	5
scalar SemiDecentralized.host[4].wlan[0].mac 	"numDropped AC 0" 	0
scalar SemiDecentralized.host[4].wlan[0].radio 	lossRate:min 	0
attr interpolationmode  backward-sample-hold
attr title  "packet loss rate, min"
scalar SemiDecentralized.host[4].wlan[0].radio 	lossRate:max 	0.64
attr interpolationmode  backward-sample-hold
attr title  "packet loss rate, max"
scalar SemiDecentralized.host[4].wlan[0].radio 	lossRate:timeavg 	0.2689690696164
attr interpolationmode  backward-sample-hold
attr title  "packet loss rate, timeavg"
statistic SemiDecentralized.host[4].wlan[0].radio 	channelNo:histogram
field count 1
field mean 0
field stddev -nan
field sum 0
field sqrsum 0
field min 0
field max 0
attr interpolationmode  sample-hold
attr title  "channel no, histogram"
bin	-INF	0
bin	-0.5	0
bin	-0.46666666666667	0
bin	-0.43333333333333	0
bin	-0.4	0
bin	-0.36666666666667	0
bin	-0.33333333333333	0
bin	-0.3	0
bin	-0.26666666666667	0
bin	-0.23333333333333	0
bin	-0.2	0
bin	-0.16666666666667	0
bin	-0.13333333333333	0
bin	-0.1	0
bin	-0.066666666666667	0
bin	-0.033333333333333	0
bin	0	1
bin	0.033333333333333	0
bin	0.066666666666667	0
bin	0.1	0
bin	0.13333333333333	0
bin	0.16666666666667	0
bin	0.2	0
bin	0.23333333333333	0
bin	0.26666666666667	0
bin	0.3	0
bin	0.33333333333333	0
bin	0.36666666666667	0
bin	0.4	0
bin	0.43333333333333	0
bin	0.46666666666667	0
bin	0.5	0
scalar SemiDecentralized.host[4].wlan[0].radio 	bitrate:min 	54000000
attr interpolationmode  sample-hold
attr title  "tx bitrate, min"
attr unit  bps
scalar SemiDecentralized.host[4].wlan[0].radio 	bitrate:max 	54000000
attr interpolationmode  sample-hold
attr title  "tx bitrate, max"
attr unit  bps
scalar SemiDecentralized.host[4].wlan[0].radio 	bitrate:timeavg 	54000000
attr interpolationmode  sample-hold
attr title  "tx bitrate, timeavg"
attr unit  bps
statistic SemiDecentralized.host[4].udpApp[0] 	endToEndDelay:histogram
field count 1772
field mean 0.0036969533099526
field stddev 0.0050921540222125
field sum 6.551001265236
field sqrsum 0.070140833520708
field min 0.000142453014
field max 0.033716708631
attr interpolationmode  none
attr source  messageAge(rcvdPk)
attr title  "end-to-end delay, histogram"
attr unit  s
bin	-INF	0
bin	-0.0084756027765	0
bin	-0.0072657271452333	0
bin	-0.0060558515139667	0
bin	-0.0048459758827	0
bin	-0.0036361002514333	0
bin	-0.0024262246201667	0
bin	-0.0012163489889	0
bin	-6.4733576333343e-06	623
bin	0.0012034022736333	477
bin	0.0024132779049	269
bin	0.0036231535361667	118
bin	0.0048330291674333	13
bin	0.0060429047987	15
bin	0.0072527804299667	13
bin	0.0084626560612333	23
bin	0.0096725316925	26
bin	0.010882407323767	29
bin	0.012092282955033	20
bin	0.0133021585863	29
bin	0.014512034217567	30
bin	0.015721909848833	10
bin	0.0169317854801	20
bin	0.018141661111367	22
bin	0.019351536742633	4
bin	0.0205614123739	6
bin	0.021771288005167	7
bin	0.022981163636433	6
bin	0.0241910392677	2
bin	0.025400914898967	2
bin	0.026610790530233	0
bin	0.0278206661615	8
scalar SemiDecentralized.host[4].udp 	droppedPkBadChecksum:count 	0
attr interpolationmode  none
attr title  "packets dropped (checksum error), count"
scalar SemiDecentralized.host[4].udp 	droppedPkWrongPort:count 	0
attr interpolationmode  none
attr title  "packets dropped (wrong port), count"
scalar SemiDecentralized.host[4].udp 	passedUpPk:count 	1772
attr interpolationmode  none
attr title  "packets passed up, count"
scalar SemiDecentralized.host[4].udp 	rcvdPk:count 	1772
attr interpolationmode  none
attr source  rcvdPk
attr title  "packets received, count"
scalar SemiDecentralized.host[4].udp 	rcvdPk:sum(packetBytes) 	921440
attr interpolationmode  none
attr source  rcvdPk
attr title  "packets received, sum(packetBytes)"
scalar SemiDecentralized.host[4].udp 	sentPk:count 	0
attr interpolationmode  none
attr source  sentPk
attr title  "packets sent, count"
scalar SemiDecentralized.host[4].udp 	sentPk:sum(packetBytes) 	0
attr interpolationmode  none
attr source  sentPk
attr title  "packets sent, sum(packetBytes)"
statistic SemiDecentralized.host[4].aodv 	NumSentAODVPackets
field count 36
field mean 18.5
field stddev 10.535653752853
field sum 666
field sqrsum 16206
field min 1
field max 36
statistic SemiDecentralized.host[4].aodv 	NumReceivedAODVPackets
field count 5
field mean 3
field stddev 1.5811388300842
field sum 15
field sqrsum 55
field min 1
field max 5
scalar SemiDecentralized.host[4].aodv 	"Number of LinkBreaks" 	5
scalar SemiDecentralized.host[4].aodv 	RERRSentNow 	5
scalar SemiDecentralized.host[4].rsmgmnt 	"Number Received RouteResponses" 	21
scalar SemiDecentralized.host[4].rsmgmnt 	"Number Sent RREQs" 	21
scalar SemiDecentralized.host[5].wlan[0].mac 	"number of receiveunsigned d packets" 	0
scalar SemiDecentralized.host[5].wlan[0].mac 	"number of collisions" 	18985
scalar SemiDecentralized.host[5].wlan[0].mac 	"number of internal collisions" 	0
scalar SemiDecentralized.host[5].wlan[0].mac 	"number of retry for AC 0" 	4374
scalar SemiDecentralized.host[5].wlan[0].mac 	"sent and received bits" 	8349376
scalar SemiDecentralized.host[5].wlan[0].mac 	"sent packet within AC 0" 	1781
scalar SemiDecentralized.host[5].wlan[0].mac 	"sent in TXOP " 	0
scalar SemiDecentralized.host[5].wlan[0].mac 	"sentWithoutRetry AC 0" 	187
scalar SemiDecentralized.host[5].wlan[0].mac 	"numGivenUp AC 0" 	90
scalar SemiDecentralized.host[5].wlan[0].mac 	"numDropped AC 0" 	0
scalar SemiDecentralized.host[5].wlan[0].radio 	lossRate:min 	0
attr interpolationmode  backward-sample-hold
attr title  "packet loss rate, min"
scalar SemiDecentralized.host[5].wlan[0].radio 	lossRate:max 	0.66
attr interpolationmode  backward-sample-hold
attr title  "packet loss rate, max"
scalar SemiDecentralized.host[5].wlan[0].radio 	lossRate:timeavg 	0.34642110988213
attr interpolationmode  backward-sample-hold
attr title  "packet loss rate, timeavg"
statistic SemiDecentralized.host[5].wlan[0].radio 	channelNo:histogram
field count 1
field mean 0
field stddev -nan
field sum 0
field sqrsum 0
field min 0
field max 0
attr interpolationmode  sample-hold
attr title  "channel no, histogram"
bin	-INF	0
bin	-0.5	0
bin	-0.46666666666667	0
bin	-0.43333333333333	0
bin	-0.4	0
bin	-0.36666666666667	0
bin	-0.33333333333333	0
bin	-0.3	0
bin	-0.26666666666667	0
bin	-0.23333333333333	0
bin	-0.2	0
bin	-0.16666666666667	0
bin	-0.13333333333333	0
bin	-0.1	0
bin	-0.066666666666667	0
bin	-0.033333333333333	0
bin	0	1
bin	0.033333333333333	0
bin	0.066666666666667	0
bin	0.1	0
bin	0.13333333333333	0
bin	0.16666666666667	0
bin	0.2	0
bin	0.23333333333333	0
bin	0.26666666666667	0
bin	0.3	0
bin	0.33333333333333	0
bin	0.36666666666667	0
bin	0.4	0
bin	0.43333333333333	0
bin	0.46666666666667	0
bin	0.5	0
scalar SemiDecentralized.host[5].wlan[0].radio 	bitrate:min 	54000000
attr interpolationmode  sample-hold
attr title  "tx bitrate, min"
attr unit  bps
scalar SemiDecentralized.host[5].wlan[0].radio 	bitrate:max 	54000000
attr interpolationmode  sample-hold
attr title  "tx bitrate, max"
attr unit  bps
scalar SemiDecentralized.host[5].wlan[0].radio 	bitrate:timeavg 	54000000
attr interpolationmode  sample-hold
attr title  "tx bitrate, timeavg"
attr unit  bps
scalar SemiDecentralized.host[5].udpApp[0] 	"packets sent" 	1871
scalar SemiDecentralized.host[5].udpApp[0] 	"packets received" 	0
statistic SemiDecentralized.host[5].udpApp[0] 	rcvdPkLifetime:stats
field count 0
field mean -nan
field stddev -nan
field sum 0
field sqrsum 0
field min -nan
field max -nan
attr interpolationmode  none
attr source  messageAge(rcvdPk)
attr title  "received packet lifetime, stats"
attr unit  s
scalar SemiDecentralized.host[5].udp 	droppedPkBadChecksum:count 	0
attr interpolationmode  none
attr title  "packets dropped (checksum error), count"
scalar SemiDecentralized.host[5].udp 	droppedPkWrongPort:count 	0
attr interpolationmode  none
attr title  "packets dropped (wrong port), count"
scalar SemiDecentralized.host[5].udp 	passedUpPk:count 	0
attr interpolationmode  none
attr title  "packets passed up, count"
scalar SemiDecentralized.host[5].udp 	rcvdPk:count 	0
attr interpolationmode  none
attr source  rcvdPk
attr title  "packets received, count"
scalar SemiDecentralized.host[5].udp 	rcvdPk:sum(packetBytes) 	0
attr interpolationmode  none
attr source  rcvdPk
attr title  "packets received, sum(packetBytes)"
scalar SemiDecentralized.host[5].udp 	sentPk:count 	1871
attr interpolationmode  none
attr source  sentPk
attr title  "packets sent, count"
scalar SemiDecentralized.host[5].udp 	sentPk:sum(packetBytes) 	972920
attr interpolationmode  none
attr source  sentPk
attr title  "packets sent, sum(packetBytes)"
statistic SemiDecentralized.host[5].aodv 	NumSentAODVPackets
field count 183
field mean 92
field stddev 52.971690552596
field sum 16836
field sqrsum 2059604
field min 1
field max 183
statistic SemiDecentralized.host[5].aodv 	NumReceivedAODVPackets
field count 91
field mean 46
field stddev 26.413380447543
field sum 4186
field sqrsum 255346
field min 1
field max 91
scalar SemiDecentralized.host[5].aodv 	"Number of LinkBreaks" 	90
scalar SemiDecentralized.host[5].aodv 	RERRSentNow 	90
scalar SemiDecentralized.host[5].rsmgmnt 	"Number Received RouteResponses" 	183
scalar SemiDecentralized.host[5].rsmgmnt 	"Number Sent RREQs" 	183
scalar SemiDecentralized.host[6].wlan[0].mac 	"number of receiveunsigned d packets" 	4844
scalar SemiDecentralized.host[6].wlan[0].mac 	"number of collisions" 	32641
scalar SemiDecentralized.host[6].wlan[0].mac 	"number of internal collisions" 	0
scalar SemiDecentralized.host[6].wlan[0].mac 	"number of retry for AC 0" 	834
scalar SemiDecentralized.host[6].wlan[0].mac 	"sent and received bits" 	13235264
scalar SemiDecentralized.host[6].wlan[0].mac 	"sent packet within AC 0" 	2833
scalar SemiDecentralized.host[6].wlan[0].mac 	"sent in TXOP " 	0
scalar SemiDecentralized.host[6].wlan[0].mac 	"sentWithoutRetry AC 0" 	2365
scalar SemiDecentralized.host[6].wlan[0].mac 	"numGivenUp AC 0" 	2
scalar SemiDecentralized.host[6].wlan[0].mac 	"numDropped AC 0" 	0
scalar SemiDecentralized.host[6].wlan[0].radio 	lossRate:min 	0
attr interpolationmode  backward-sample-hold
attr title  "packet loss rate, min"
scalar SemiDecentralized.host[6].wlan[0].radio 	lossRate:max 	0.54
attr interpolationmode  backward-sample-hold
attr title  "packet loss rate, max"
scalar SemiDecentralized.host[6].wlan[0].radio 	lossRate:timeavg 	0.15537998318602
attr interpolationmode  backward-sample-hold
attr title  "packet loss rate, timeavg"
statistic SemiDecentralized.host[6].wlan[0].radio 	channelNo:histogram
field count 1
field mean 0
field stddev -nan
field sum 0
field sqrsum 0
field min 0
field max 0
attr interpolationmode  sample-hold
attr title  "channel no, histogram"
bin	-INF	0
bin	-0.5	0
bin	-0.46666666666667	0
bin	-0.43333333333333	0
bin	-0.4	0
bin	-0.36666666666667	0
bin	-0.33333333333333	0
bin	-0.3	0
bin	-0.26666666666667	0
bin	-0.23333333333333	0
bin	-0.2	0
bin	-0.16666666666667	0
bin	-0.13333333333333	0
bin	-0.1	0
bin	-0.066666666666667	0
bin	-0.033333333333333	0
bin	0	1
bin	0.033333333333333	0
bin	0.066666666666667	0
bin	0.1	0
bin	0.13333333333333	0
bin	0.16666666666667	0
bin	0.2	0
bin	0.23333333333333	0
bin	0.26666666666667	0
bin	0.3	0
bin	0.33333333333333	0
bin	0.36666666666667	0
bin	0.4	0
bin	0.43333333333333	0
bin	0.46666666666667	0
bin	0.5	0
scalar SemiDecentralized.host[6].wlan[0].radio 	bitrate:min 	54000000
attr interpolationmode  sample-hold
attr title  "tx bitrate, min"
attr unit  bps
scalar SemiDecentralized.host[6].wlan[0].radio 	bitrate:max 	54000000
attr interpolationmode  sample-hold
attr title  "tx bitrate, max"
attr unit  bps
scalar SemiDecentralized.host[6].wlan[0].radio 	bitrate:timeavg 	54000000
attr interpolationmode  sample-hold
attr title  "tx bitrate, timeavg"
attr unit  bps
statistic SemiDecentralized.host[6].udpApp[0] 	endToEndDelay:histogram
field count 1901
field mean 0.0013408169966755
field stddev 0.0018990135229438
field sum 2.54889311068
field sqrsum 0.010269478690124
field min 0.000142167112
field max 0.02474859404
attr interpolationmode  none
attr source  messageAge(rcvdPk)
attr title  "end-to-end delay, histogram"
attr unit  s
bin	-INF	0
bin	-0.0036206762425	0
bin	-0.0030580990460333	0
bin	-0.0024955218495667	0
bin	-0.0019329446531	0
bin	-0.0013703674566333	0
bin	-0.00080779026016667	0
bin	-0.0002452130637	676
bin	0.00031736413276667	400
bin	0.00087994132923333	254
bin	0.0014425185257	163
bin	0.0020050957221667	117
bin	0.0025676729186333	77
bin	0.0031302501151	51
bin	0.0036928273115667	45
bin	0.0042554045080333	27
bin	0.0048179817045	24
bin	0.0053805589009667	12
bin	0.0059431360974333	8
bin	0.0065057132939	8
bin	0.0070682904903667	9
bin	0.0076308676868333	6
bin	0.0081934448833	3
bin	0.0087560220797667	6
bin	0.0093185992762333	0
bin	0.0098811764727	1
bin	0.010443753669167	2
bin	0.011006330865633	5
bin	0.0115689080621	0
bin	0.012131485258567	1
bin	0.012694062455033	2
bin	0.0132566396515	4
scalar SemiDecentralized.host[6].udp 	droppedPkBadChecksum:count 	0
attr interpolationmode  none
attr title  "packets dropped (checksum error), count"
scalar SemiDecentralized.host[6].udp 	droppedPkWrongPort:count 	0
attr interpolationmode  none
attr title  "packets dropped (wrong port), count"
scalar SemiDecentralized.host[6].udp 	passedUpPk:count 	1901
attr interpolationmode  none
attr title  "packets passed up, count"
scalar SemiDecentralized.host[6].udp 	rcvdPk:count 	1901
attr interpolationmode  none
attr source  rcvdPk
attr title  "packets received, count"
scalar SemiDecentralized.host[6].udp 	rcvdPk:sum(packetBytes) 	988520
attr interpolationmode  none
attr source  rcvdPk
attr title  "packets received, sum(packetBytes)"
scalar SemiDecentralized.host[6].udp 	sentPk:count 	0
attr interpolationmode  none
attr source  sentPk
attr title  "packets sent, count"
scalar SemiDecentralized.host[6].udp 	sentPk:sum(packetBytes) 	0
attr interpolationmode  none
attr source  sentPk
attr title  "packets sent, sum(packetBytes)"
statistic SemiDecentralized.host[6].aodv 	NumSentAODVPackets
field count 65
field mean 33
field stddev 18.907670401189
field sum 2145
field sqrsum 93665
field min 1
field max 65
statistic SemiDecentralized.host[6].aodv 	NumReceivedAODVPackets
field count 2
field mean 1.5
field stddev 0.70710678118655
field sum 3
field sqrsum 5
field min 1
field max 2
scalar SemiDecentralized.host[6].aodv 	"Number of LinkBreaks" 	2
scalar SemiDecentralized.host[6].aodv 	RERRSentNow 	2
scalar SemiDecentralized.host[6].rsmgmnt 	"Number Received RouteResponses" 	8
scalar SemiDecentralized.host[6].rsmgmnt 	"Number Sent RREQs" 	8
scalar SemiDecentralized.host[7].wlan[0].mac 	"number of receiveunsigned d packets" 	6640
scalar SemiDecentralized.host[7].wlan[0].mac 	"number of collisions" 	28268
scalar SemiDecentralized.host[7].wlan[0].mac 	"number of internal collisions" 	0
scalar SemiDecentralized.host[7].wlan[0].mac 	"number of retry for AC 0" 	3644
scalar SemiDecentralized.host[7].wlan[0].mac 	"sent and received bits" 	37982960
scalar SemiDecentralized.host[7].wlan[0].mac 	"sent packet within AC 0" 	8145
scalar SemiDecentralized.host[7].wlan[0].mac 	"sent in TXOP " 	0
scalar SemiDecentralized.host[7].wlan[0].mac 	"sentWithoutRetry AC 0" 	6128
scalar SemiDecentralized.host[7].wlan[0].mac 	"numGivenUp AC 0" 	20
scalar SemiDecentralized.host[7].wlan[0].mac 	"numDropped AC 0" 	0
scalar SemiDecentralized.host[7].wlan[0].radio 	lossRate:min 	0
attr interpolationmode  backward-sample-hold
attr title  "packet loss rate, min"
scalar SemiDecentralized.host[7].wlan[0].radio 	lossRate:max 	0.5
attr interpolationmode  backward-sample-hold
attr title  "packet loss rate, max"
scalar SemiDecentralized.host[7].wlan[0].radio 	lossRate:timeavg 	0.15322596312017
attr interpolationmode  backward-sample-hold
attr title  "packet loss rate, timeavg"
statistic SemiDecentralized.host[7].wlan[0].radio 	channelNo:histogram
field count 1
field mean 0
field stddev -nan
field sum 0
field sqrsum 0
field min 0
field max 0
attr interpolationmode  sample-hold
attr title  "channel no, histogram"
bin	-INF	0
bin	-0.5	0
bin	-0.46666666666667	0
bin	-0.43333333333333	0
bin	-0.4	0
bin	-0.36666666666667	0
bin	-0.33333333333333	0
bin	-0.3	0
bin	-0.26666666666667	0
bin	-0.23333333333333	0
bin	-0.2	0
bin	-0.16666666666667	0
bin	-0.13333333333333	0
bin	-0.1	0
bin	-0.066666666666667	0
bin	-0.033333333333333	0
bin	0	1
bin	0.033333333333333	0
bin	0.066666666666667	0
bin	0.1	0
bin	0.13333333333333	0
bin	0.16666666666667	0
bin	0.2	0
bin	0.23333333333333	0
bin	0.26666666666667	0
bin	0.3	0
bin	0.33333333333333	0
bin	0.36666666666667	0
bin	0.4	0
bin	0.43333333333333	0
bin	0.46666666666667	0
bin	0.5	0
scalar SemiDecentralized.host[7].wlan[0].radio 	bitrate:min 	54000000
attr interpolationmode  sample-hold
attr title  "tx bitrate, min"
attr unit  bps
scalar SemiDecentralized.host[7].wlan[0].radio 	bitrate:max 	54000000
attr interpolationmode  sample-hold
attr title  "tx bitrate, max"
attr unit  bps
scalar SemiDecentralized.host[7].wlan[0].radio 	bitrate:timeavg 	54000000
attr interpolationmode  sample-hold
attr title  "tx bitrate, timeavg"
attr unit  bps
scalar SemiDecentralized.host[7].udpApp[0] 	"packets sent" 	1930
scalar SemiDecentralized.host[7].udpApp[0] 	"packets received" 	0
statistic SemiDecentralized.host[7].udpApp[0] 	rcvdPkLifetime:stats
field count 0
field mean -nan
field stddev -nan
field sum 0
field sqrsum 0
field min -nan
field max -nan
attr interpolationmode  none
attr source  messageAge(rcvdPk)
attr title  "received packet lifetime, stats"
attr unit  s
scalar SemiDecentralized.host[7].udp 	droppedPkBadChecksum:count 	0
attr interpolationmode  none
attr title  "packets dropped (checksum error), count"
scalar SemiDecentralized.host[7].udp 	droppedPkWrongPort:count 	0
attr interpolationmode  none
attr title  "packets dropped (wrong port), count"
scalar SemiDecentralized.host[7].udp 	passedUpPk:count 	0
attr interpolationmode  none
attr title  "packets passed up, count"
scalar SemiDecentralized.host[7].udp 	rcvdPk:count 	0
attr interpolationmode  none
attr source  rcvdPk
attr title  "packets received, count"
scalar SemiDecentralized.host[7].udp 	rcvdPk:sum(packetBytes) 	0
attr interpolationmode  none
attr source  rcvdPk
attr title  "packets received, sum(packetBytes)"
scalar SemiDecentralized.host[7].udp 	sentPk:count 	1930
attr interpolationmode  none
attr source  sentPk
attr title  "packets sent, count"
scalar SemiDecentralized.host[7].udp 	sentPk:sum(packetBytes) 	1003600
attr interpolationmode  none
attr source  sentPk
attr title  "packets sent, sum(packetBytes)"
statistic SemiDecentralized.host[7].aodv 	NumSentAODVPackets
field count 412
field mean 206.5
field stddev 119.07840554301
field sum 85078
field sqrsum 23396450
field min 1
field max 412
statistic SemiDecentralized.host[7].aodv 	NumReceivedAODVPackets
field count 18
field mean 9.5
field stddev 5.3385391260157
field sum 171
field sqrsum 2109
field min 1
field max 18
scalar SemiDecentralized.host[7].aodv 	"Number of LinkBreaks" 	20
scalar SemiDecentralized.host[7].aodv 	RERRSentNow 	17
scalar SemiDecentralized.host[7].rsmgmnt 	"Number Received RouteResponses" 	53
scalar SemiDecentralized.host[7].rsmgmnt 	"Number Sent RREQs" 	53
scalar SemiDecentralized.host[8].wlan[0].mac 	"number of receiveunsigned d packets" 	5442
scalar SemiDecentralized.host[8].wlan[0].mac 	"number of collisions" 	43599
scalar SemiDecentralized.host[8].wlan[0].mac 	"number of internal collisions" 	0
scalar SemiDecentralized.host[8].wlan[0].mac 	"number of retry for AC 0" 	1123
scalar SemiDecentralized.host[8].wlan[0].mac 	"sent and received bits" 	17808512
scalar SemiDecentralized.host[8].wlan[0].mac 	"sent packet within AC 0" 	3815
scalar SemiDecentralized.host[8].wlan[0].mac 	"sent in TXOP " 	0
scalar SemiDecentralized.host[8].wlan[0].mac 	"sentWithoutRetry AC 0" 	3240
scalar SemiDecentralized.host[8].wlan[0].mac 	"numGivenUp AC 0" 	8
scalar SemiDecentralized.host[8].wlan[0].mac 	"numDropped AC 0" 	0
scalar SemiDecentralized.host[8].wlan[0].radio 	lossRate:min 	0
attr interpolationmode  backward-sample-hold
attr title  "packet loss rate, min"
scalar SemiDecentralized.host[8].wlan[0].radio 	lossRate:max 	0.62
attr interpolationmode  backward-sample-hold
attr title  "packet loss rate, max"
scalar SemiDecentralized.host[8].wlan[0].radio 	lossRate:timeavg 	0.20711684249683
attr interpolationmode  backward-sample-hold
attr title  "packet loss rate, timeavg"
statistic SemiDecentralized.host[8].wlan[0].radio 	channelNo:histogram
field count 1
field mean 0
field stddev -nan
field sum 0
field sqrsum 0
field min 0
field max 0
attr interpolationmode  sample-hold
attr title  "channel no, histogram"
bin	-INF	0
bin	-0.5	0
bin	-0.46666666666667	0
bin	-0.43333333333333	0
bin	-0.4	0
bin	-0.36666666666667	0
bin	-0.33333333333333	0
bin	-0.3	0
bin	-0.26666666666667	0
bin	-0.23333333333333	0
bin	-0.2	0
bin	-0.16666666666667	0
bin	-0.13333333333333	0
bin	-0.1	0
bin	-0.066666666666667	0
bin	-0.033333333333333	0
bin	0	1
bin	0.033333333333333	0
bin	0.066666666666667	0
bin	0.1	0
bin	0.13333333333333	0
bin	0.16666666666667	0
bin	0.2	0
bin	0.23333333333333	0
bin	0.26666666666667	0
bin	0.3	0
bin	0.33333333333333	0
bin	0.36666666666667	0
bin	0.4	0
bin	0.43333333333333	0
bin	0.46666666666667	0
bin	0.5	0
scalar SemiDecentralized.host[8].wlan[0].radio 	bitrate:min 	54000000
attr interpolationmode  sample-hold
attr title  "tx bitrate, min"
attr unit  bps
scalar SemiDecentralized.host[8].wlan[0].radio 	bitrate:max 	54000000
attr interpolationmode  sample-hold
attr title  "tx bitrate, max"
attr unit  bps
scalar SemiDecentralized.host[8].wlan[0].radio 	bitrate:timeavg 	54000000
attr interpolationmode  sample-hold
attr title  "tx bitrate, timeavg"
attr unit  bps
statistic SemiDecentralized.host[8].udpApp[0] 	endToEndDelay:histogram
field count 1489
field mean 0.0067563216578146
field stddev 0.0064248554232654
field sum 10.060162948486
field sqrsum 0.12939250241828
field min 0.001511968556
field max 0.052422364785
attr interpolationmode  none
attr source  messageAge(rcvdPk)
attr title  "end-to-end delay, histogram"
attr unit  s
bin	-INF	0
bin	-0.0122734520455	0
bin	-0.010435393409433	0
bin	-0.0085973347733667	0
bin	-0.0067592761373	0
bin	-0.0049212175012333	0
bin	-0.0030831588651667	0
bin	-0.0012451002291	0
bin	0.00059295840696667	504
bin	0.0024310170430333	163
bin	0.0042690756791	159
bin	0.0061071343151667	181
bin	0.0079451929512333	164
bin	0.0097832515873	113
bin	0.011621310223367	41
bin	0.013459368859433	53
bin	0.0152974274955	14
bin	0.017135486131567	16
bin	0.018973544767633	24
bin	0.0208116034037	6
bin	0.022649662039767	8
bin	0.024487720675833	6
bin	0.0263257793119	10
bin	0.028163837947967	8
bin	0.030001896584033	5
bin	0.0318399552201	3
bin	0.033678013856167	3
bin	0.035516072492233	2
bin	0.0373541311283	1
bin	0.039192189764367	0
bin	0.041030248400433	0
bin	0.0428683070365	5
scalar SemiDecentralized.host[8].udp 	droppedPkBadChecksum:count 	0
attr interpolationmode  none
attr title  "packets dropped (checksum error), count"
scalar SemiDecentralized.host[8].udp 	droppedPkWrongPort:count 	0
attr interpolationmode  none
attr title  "packets dropped (wrong port), count"
scalar SemiDecentralized.host[8].udp 	passedUpPk:count 	1489
attr interpolationmode  none
attr title  "packets passed up, count"
scalar SemiDecentralized.host[8].udp 	rcvdPk:count 	1489
attr interpolationmode  none
attr source  rcvdPk
attr title  "packets received, count"
scalar SemiDecentralized.host[8].udp 	rcvdPk:sum(packetBytes) 	774280
attr interpolationmode  none
attr source  rcvdPk
attr title  "packets received, sum(packetBytes)"
scalar SemiDecentralized.host[8].udp 	sentPk:count 	0
attr interpolationmode  none
attr source  sentPk
attr title  "packets sent, count"
scalar SemiDecentralized.host[8].udp 	sentPk:sum(packetBytes) 	0
attr interpolationmode  none
attr source  sentPk
attr title  "packets sent, sum(packetBytes)"
statistic SemiDecentralized.host[8].aodv 	NumSentAODVPackets
field count 136
field mean 68.5
field stddev 39.403891516786
field sum 9316
field sqrsum 847756
field min 1
field max 136
statistic SemiDecentralized.host[8].aodv 	NumReceivedAODVPackets
field count 6
field mean 3.5
field stddev 1.870828693387
field sum 21
field sqrsum 91
field min 1
field max 6
scalar SemiDecentralized.host[8].aodv 	"Number of LinkBreaks" 	8
scalar SemiDecentralized.host[8].aodv 	RERRSentNow 	6
scalar SemiDecentralized.host[8].rsmgmnt 	"Number Received RouteResponses" 	22
scalar SemiDecentralized.host[8].rsmgmnt 	"Number Sent RREQs" 	22
scalar SemiDecentralized.host[9].wlan[0].mac 	"number of receiveunsigned d packets" 	0
scalar SemiDecentralized.host[9].wlan[0].mac 	"number of collisions" 	18927
scalar SemiDecentralized.host[9].wlan[0].mac 	"number of internal collisions" 	0
scalar SemiDecentralized.host[9].wlan[0].mac 	"number of retry for AC 0" 	2259
scalar SemiDecentralized.host[9].wlan[0].mac 	"sent and received bits" 	8516992
scalar SemiDecentralized.host[9].wlan[0].mac 	"sent packet within AC 0" 	1817
scalar SemiDecentralized.host[9].wlan[0].mac 	"sent in TXOP " 	0
scalar SemiDecentralized.host[9].wlan[0].mac 	"sentWithoutRetry AC 0" 	1148
scalar SemiDecentralized.host[9].wlan[0].mac 	"numGivenUp AC 0" 	49
scalar SemiDecentralized.host[9].wlan[0].mac 	"numDropped AC 0" 	0
scalar SemiDecentralized.host[9].wlan[0].radio 	lossRate:min 	0
attr interpolationmode  backward-sample-hold
attr title  "packet loss rate, min"
scalar SemiDecentralized.host[9].wlan[0].radio 	lossRate:max 	0.54
attr interpolationmode  backward-sample-hold
attr title  "packet loss rate, max"
scalar SemiDecentralized.host[9].wlan[0].radio 	lossRate:timeavg 	0.24331790716716
attr interpolationmode  backward-sample-hold
attr title  "packet loss rate, timeavg"
statistic SemiDecentralized.host[9].wlan[0].radio 	channelNo:histogram
field count 1
field mean 0
field stddev -nan
field sum 0
field sqrsum 0
field min 0
field max 0
attr interpolationmode  sample-hold
attr title  "channel no, histogram"
bin	-INF	0
bin	-0.5	0
bin	-0.46666666666667	0
bin	-0.43333333333333	0
bin	-0.4	0
bin	-0.36666666666667	0
bin	-0.33333333333333	0
bin	-0.3	0
bin	-0.26666666666667	0
bin	-0.23333333333333	0
bin	-0.2	0
bin	-0.16666666666667	0
bin	-0.13333333333333	0
bin	-0.1	0
bin	-0.066666666666667	0
bin	-0.033333333333333	0
bin	0	1
bin	0.033333333333333	0
bin	0.066666666666667	0
bin	0.1	0
bin	0.13333333333333	0
bin	0.16666666666667	0
bin	0.2	0
bin	0.23333333333333	0
bin	0.26666666666667	0
bin	0.3	0
bin	0.33333333333333	0
bin	0.36666666666667	0
bin	0.4	0
bin	0.43333333333333	0
bin	0.46666666666667	0
bin	0.5	0
scalar SemiDecentralized.host[9].wlan[0].radio 	bitrate:min 	54000000
attr interpolationmode  sample-hold
attr title  "tx bitrate, min"
attr unit  bps
scalar SemiDecentralized.host[9].wlan[0].radio 	bitrate:max 	54000000
attr interpolationmode  sample-hold
attr title  "tx bitrate, max"
attr unit  bps
scalar SemiDecentralized.host[9].wlan[0].radio 	bitrate:timeavg 	54000000
attr interpolationmode  sample-hold
attr title  "tx bitrate, timeavg"
attr unit  bps
scalar SemiDecentralized.host[9].udpApp[0] 	"packets sent" 	1866
scalar SemiDecentralized.host[9].udpApp[0] 	"packets received" 	0
statistic SemiDecentralized.host[9].udpApp[0] 	rcvdPkLifetime:stats
field count 0
field mean -nan
field stddev -nan
field sum 0
field sqrsum 0
field min -nan
field max -nan
attr interpolationmode  none
attr source  messageAge(rcvdPk)
attr title  "received packet lifetime, stats"
attr unit  s
scalar SemiDecentralized.host[9].udp 	droppedPkBadChecksum:count 	0
attr interpolationmode  none
attr title  "packets dropped (checksum error), count"
scalar SemiDecentralized.host[9].udp 	droppedPkWrongPort:count 	0
attr interpolationmode  none
attr title  "packets dropped (wrong port), count"
scalar SemiDecentralized.host[9].udp 	passedUpPk:count 	0
attr interpolationmode  none
attr title  "packets passed up, count"
scalar SemiDecentralized.host[9].udp 	rcvdPk:count 	0
attr interpolationmode  none
attr source  rcvdPk
attr title  "packets received, count"
scalar SemiDecentralized.host[9].udp 	rcvdPk:sum(packetBytes) 	0
attr interpolationmode  none
attr source  rcvdPk
attr title  "packets received, sum(packetBytes)"
scalar SemiDecentralized.host[9].udp 	sentPk:count 	1866
attr interpolationmode  none
attr source  sentPk
attr title  "packets sent, count"
scalar SemiDecentralized.host[9].udp 	sentPk:sum(packetBytes) 	970320
attr interpolationmode  none
attr source  sentPk
attr title  "packets sent, sum(packetBytes)"
statistic SemiDecentralized.host[9].aodv 	NumSentAODVPackets
field count 151
field mean 76
field stddev 43.734044709661
field sum 11476
field sqrsum 1159076
field min 1
field max 151
statistic SemiDecentralized.host[9].aodv 	NumReceivedAODVPackets
field count 50
field mean 25.5
field stddev 14.577379737113
field sum 1275
field sqrsum 42925
field min 1
field max 50
scalar SemiDecentralized.host[9].aodv 	"Number of LinkBreaks" 	49
scalar SemiDecentralized.host[9].aodv 	RERRSentNow 	49
scalar SemiDecentralized.host[9].rsmgmnt 	"Number Received RouteResponses" 	151
scalar SemiDecentralized.host[9].rsmgmnt 	"Number Sent RREQs" 	151
scalar SemiDecentralized.host[10].wlan[0].mac 	"number of receiveunsigned d packets" 	2493
scalar SemiDecentralized.host[10].wlan[0].mac 	"number of collisions" 	26075
scalar SemiDecentralized.host[10].wlan[0].mac 	"number of internal collisions" 	0
scalar SemiDecentralized.host[10].wlan[0].mac 	"number of retry for AC 0" 	236
scalar SemiDecentralized.host[10].wlan[0].mac 	"sent and received bits" 	4371664
scalar SemiDecentralized.host[10].wlan[0].mac 	"sent packet within AC 0" 	927
scalar SemiDecentralized.host[10].wlan[0].mac 	"sent in TXOP " 	0
scalar SemiDecentralized.host[10].wlan[0].mac 	"sentWithoutRetry AC 0" 	788
scalar SemiDecentralized.host[10].wlan[0].mac 	"numGivenUp AC 0" 	2
scalar SemiDecentralized.host[10].wlan[0].mac 	"numDropped AC 0" 	0
scalar SemiDecentralized.host[10].wlan[0].radio 	lossRate:min 	0
attr interpolationmode  backward-sample-hold
attr title  "packet loss rate, min"
scalar SemiDecentralized.host[10].wlan[0].radio 	lossRate:max 	0.56
attr interpolationmode  backward-sample-hold
attr title  "packet loss rate, max"
scalar SemiDecentralized.host[10].wlan[0].radio 	lossRate:timeavg 	0.19703333813185
attr interpolationmode  backward-sample-hold
attr title  "packet loss rate, timeavg"
statistic SemiDecentralized.host[10].wlan[0].radio 	channelNo:histogram
field count 1
field mean 0
field stddev -nan
field sum 0
field sqrsum 0
field min 0
field max 0
attr interpolationmode  sample-hold
attr title  "channel no, histogram"
bin	-INF	0
bin	-0.5	0
bin	-0.46666666666667	0
bin	-0.43333333333333	0
bin	-0.4	0
bin	-0.36666666666667	0
bin	-0.33333333333333	0
bin	-0.3	0
bin	-0.26666666666667	0
bin	-0.23333333333333	0
bin	-0.2	0
bin	-0.16666666666667	0
bin	-0.13333333333333	0
bin	-0.1	0
bin	-0.066666666666667	0
bin	-0.033333333333333	0
bin	0	1
bin	0.033333333333333	0
bin	0.066666666666667	0
bin	0.1	0
bin	0.13333333333333	0
bin	0.16666666666667	0
bin	0.2	0
bin	0.23333333333333	0
bin	0.26666666666667	0
bin	0.3	0
bin	0.33333333333333	0
bin	0.36666666666667	0
bin	0.4	0
bin	0.43333333333333	0
bin	0.46666666666667	0
bin	0.5	0
scalar SemiDecentralized.host[10].wlan[0].radio 	bitrate:min 	54000000
attr interpolationmode  sample-hold
attr title  "tx bitrate, min"
attr unit  bps
scalar SemiDecentralized.host[10].wlan[0].radio 	bitrate:max 	54000000
attr interpolationmode  sample-hold
attr title  "tx bitrate, max"
attr unit  bps
scalar SemiDecentralized.host[10].wlan[0].radio 	bitrate:timeavg 	54000000
attr interpolationmode  sample-hold
attr title  "tx bitrate, timeavg"
attr unit  bps
statistic SemiDecentralized.host[10].udpApp[0] 	endToEndDelay:histogram
field count 1502
field mean 0.0073196304696524
field stddev 0.007314380758877
field sum 10.994084965418
field sqrsum 0.16077638829345
field min 0.001968430596
field max 0.084712200317
attr interpolationmode  none
attr source  messageAge(rcvdPk)
attr title  "end-to-end delay, histogram"
attr unit  s
bin	-INF	0
bin	-0.0394034542645	0
bin	-0.033887202949767	0
bin	-0.028370951635033	0
bin	-0.0228547003203	0
bin	-0.017338449005567	0
bin	-0.011822197690833	0
bin	-0.0063059463761	0
bin	-0.00078969506136666	717
bin	0.0047265562533667	502
bin	0.0102428075681	123
bin	0.015759058882833	74
bin	0.021275310197567	38
bin	0.0267915615123	28
bin	0.032307812827033	6
bin	0.037824064141767	6
bin	0.0433403154565	4
bin	0.048856566771233	2
bin	0.054372818085967	0
bin	0.0598890694007	0
bin	0.065405320715433	1
bin	0.070921572030167	0
bin	0.0764378233449	0
bin	0.081954074659633	1
bin	0.087470325974367	0
bin	0.0929865772891	0
bin	0.098502828603833	0
bin	0.10401907991857	0
bin	0.1095353312333	0
bin	0.11505158254803	0
bin	0.12056783386277	0
bin	0.1260840851775	0
scalar SemiDecentralized.host[10].udp 	droppedPkBadChecksum:count 	0
attr interpolationmode  none
attr title  "packets dropped (checksum error), count"
scalar SemiDecentralized.host[10].udp 	droppedPkWrongPort:count 	0
attr interpolationmode  none
attr title  "packets dropped (wrong port), count"
scalar SemiDecentralized.host[10].udp 	passedUpPk:count 	1502
attr interpolationmode  none
attr title  "packets passed up, count"
scalar SemiDecentralized.host[10].udp 	rcvdPk:count 	1502
attr interpolationmode  none
attr source  rcvdPk
attr title  "packets received, count"
scalar SemiDecentralized.host[10].udp 	rcvdPk:sum(packetBytes) 	781040
attr interpolationmode  none
attr source  rcvdPk
attr title  "packets received, sum(packetBytes)"
scalar SemiDecentralized.host[10].udp 	sentPk:count 	0
attr interpolationmode  none
attr source  sentPk
attr title  "packets sent, count"
scalar SemiDecentralized.host[10].udp 	sentPk:sum(packetBytes) 	0
attr interpolationmode  none
attr source  sentPk
attr title  "packets sent, sum(packetBytes)"
statistic SemiDecentralized.host[10].aodv 	NumSentAODVPackets
field count 60
field mean 30.5
field stddev 17.464249196573
field sum 1830
field sqrsum 73810
field min 1
field max 60
statistic SemiDecentralized.host[10].aodv 	NumReceivedAODVPackets
field count 2
field mean 1.5
field stddev 0.70710678118655
field sum 3
field sqrsum 5
field min 1
field max 2
scalar SemiDecentralized.host[10].aodv 	"Number of LinkBreaks" 	2
scalar SemiDecentralized.host[10].aodv 	RERRSentNow 	2
scalar SemiDecentralized.host[10].rsmgmnt 	"Number Received RouteResponses" 	4
scalar SemiDecentralized.host[10].rsmgmnt 	"Number Sent RREQs" 	4
scalar SemiDecentralized.host[11].wlan[0].mac 	"number of receiveunsigned d packets" 	255
scalar SemiDecentralized.host[11].wlan[0].mac 	"number of collisions" 	18033
scalar SemiDecentralized.host[11].wlan[0].mac 	"number of internal collisions" 	0
scalar SemiDecentralized.host[11].wlan[0].mac 	"number of retry for AC 0" 	1083
scalar SemiDecentralized.host[11].wlan[0].mac 	"sent and received bits" 	9784048
scalar SemiDecentralized.host[11].wlan[0].mac 	"sent packet within AC 0" 	2089
scalar SemiDecentralized.host[11].wlan[0].mac 	"sent in TXOP " 	0
scalar SemiDecentralized.host[11].wlan[0].mac 	"sentWithoutRetry AC 0" 	1651
scalar SemiDecentralized.host[11].wlan[0].mac 	"numGivenUp AC 0" 	24
scalar SemiDecentralized.host[11].wlan[0].mac 	"numDropped AC 0" 	0
scalar SemiDecentralized.host[11].wlan[0].radio 	lossRate:min 	0.02
attr interpolationmode  backward-sample-hold
attr title  "packet loss rate, min"
scalar SemiDecentralized.host[11].wlan[0].radio 	lossRate:max 	0.68
attr interpolationmode  backward-sample-hold
attr title  "packet loss rate, max"
scalar SemiDecentralized.host[11].wlan[0].radio 	lossRate:timeavg 	0.33421384409675
attr interpolationmode  backward-sample-hold
attr title  "packet loss rate, timeavg"
statistic SemiDecentralized.host[11].wlan[0].radio 	channelNo:histogram
field count 1
field mean 0
field stddev -nan
field sum 0
field sqrsum 0
field min 0
field max 0
attr interpolationmode  sample-hold
attr title  "channel no, histogram"
bin	-INF	0
bin	-0.5	0
bin	-0.46666666666667	0
bin	-0.43333333333333	0
bin	-0.4	0
bin	-0.36666666666667	0
bin	-0.33333333333333	0
bin	-0.3	0
bin	-0.26666666666667	0
bin	-0.23333333333333	0
bin	-0.2	0
bin	-0.16666666666667	0
bin	-0.13333333333333	0
bin	-0.1	0
bin	-0.066666666666667	0
bin	-0.033333333333333	0
bin	0	1
bin	0.033333333333333	0
bin	0.066666666666667	0
bin	0.1	0
bin	0.13333333333333	0
bin	0.16666666666667	0
bin	0.2	0
bin	0.23333333333333	0
bin	0.26666666666667	0
bin	0.3	0
bin	0.33333333333333	0
bin	0.36666666666667	0
bin	0.4	0
bin	0.43333333333333	0
bin	0.46666666666667	0
bin	0.5	0
scalar SemiDecentralized.host[11].wlan[0].radio 	bitrate:min 	54000000
attr interpolationmode  sample-hold
attr title  "tx bitrate, min"
attr unit  bps
scalar SemiDecentralized.host[11].wlan[0].radio 	bitrate:max 	54000000
attr interpolationmode  sample-hold
attr title  "tx bitrate, max"
attr unit  bps
scalar SemiDecentralized.host[11].wlan[0].radio 	bitrate:timeavg 	54000000
attr interpolationmode  sample-hold
attr title  "tx bitrate, timeavg"
attr unit  bps
scalar SemiDecentralized.host[11].udpApp[0] 	"packets sent" 	1868
scalar SemiDecentralized.host[11].udpApp[0] 	"packets received" 	0
statistic SemiDecentralized.host[11].udpApp[0] 	rcvdPkLifetime:stats
field count 0
field mean -nan
field stddev -nan
field sum 0
field sqrsum 0
field min -nan
field max -nan
attr interpolationmode  none
attr source  messageAge(rcvdPk)
attr title  "received packet lifetime, stats"
attr unit  s
scalar SemiDecentralized.host[11].udp 	droppedPkBadChecksum:count 	0
attr interpolationmode  none
attr title  "packets dropped (checksum error), count"
scalar SemiDecentralized.host[11].udp 	droppedPkWrongPort:count 	0
attr interpolationmode  none
attr title  "packets dropped (wrong port), count"
scalar SemiDecentralized.host[11].udp 	passedUpPk:count 	0
attr interpolationmode  none
attr title  "packets passed up, count"
scalar SemiDecentralized.host[11].udp 	rcvdPk:count 	0
attr interpolationmode  none
attr source  rcvdPk
attr title  "packets received, count"
scalar SemiDecentralized.host[11].udp 	rcvdPk:sum(packetBytes) 	0
attr interpolationmode  none
attr source  rcvdPk
attr title  "packets received, sum(packetBytes)"
scalar SemiDecentralized.host[11].udp 	sentPk:count 	1868
attr interpolationmode  none
attr source  sentPk
attr title  "packets sent, count"
scalar SemiDecentralized.host[11].udp 	sentPk:sum(packetBytes) 	971360
attr interpolationmode  none
attr source  sentPk
attr title  "packets sent, sum(packetBytes)"
statistic SemiDecentralized.host[11].aodv 	NumSentAODVPackets
field count 86
field mean 43.5
field stddev 24.969981978368
field sum 3741
field sqrsum 215731
field min 1
field max 86
statistic SemiDecentralized.host[11].aodv 	NumReceivedAODVPackets
field count 25
field mean 13
field stddev 7.3598007219399
field sum 325
field sqrsum 5525
field min 1
field max 25
scalar SemiDecentralized.host[11].aodv 	"Number of LinkBreaks" 	24
scalar SemiDecentralized.host[11].aodv 	RERRSentNow 	24
scalar SemiDecentralized.host[11].rsmgmnt 	"Number Received RouteResponses" 	77
scalar SemiDecentralized.host[11].rsmgmnt 	"Number Sent RREQs" 	77
scalar SemiDecentralized.host[12].wlan[0].mac 	"number of receiveunsigned d packets" 	3429
scalar SemiDecentralized.host[12].wlan[0].mac 	"number of collisions" 	15262
scalar SemiDecentralized.host[12].wlan[0].mac 	"number of internal collisions" 	0
scalar SemiDecentralized.host[12].wlan[0].mac 	"number of retry for AC 0" 	454
scalar SemiDecentralized.host[12].wlan[0].mac 	"sent and received bits" 	8653136
scalar SemiDecentralized.host[12].wlan[0].mac 	"sent packet within AC 0" 	1846
scalar SemiDecentralized.host[12].wlan[0].mac 	"sent in TXOP " 	0
scalar SemiDecentralized.host[12].wlan[0].mac 	"sentWithoutRetry AC 0" 	1649
scalar SemiDecentralized.host[12].wlan[0].mac 	"numGivenUp AC 0" 	10
scalar SemiDecentralized.host[12].wlan[0].mac 	"numDropped AC 0" 	0
scalar SemiDecentralized.host[12].wlan[0].radio 	lossRate:min 	0
attr interpolationmode  backward-sample-hold
attr title  "packet loss rate, min"
scalar SemiDecentralized.host[12].wlan[0].radio 	lossRate:max 	0.5
attr interpolationmode  backward-sample-hold
attr title  "packet loss rate, max"
scalar SemiDecentralized.host[12].wlan[0].radio 	lossRate:timeavg 	0.18708985599997
attr interpolationmode  backward-sample-hold
attr title  "packet loss rate, timeavg"
statistic SemiDecentralized.host[12].wlan[0].radio 	channelNo:histogram
field count 1
field mean 0
field stddev -nan
field sum 0
field sqrsum 0
field min 0
field max 0
attr interpolationmode  sample-hold
attr title  "channel no, histogram"
bin	-INF	0
bin	-0.5	0
bin	-0.46666666666667	0
bin	-0.43333333333333	0
bin	-0.4	0
bin	-0.36666666666667	0
bin	-0.33333333333333	0
bin	-0.3	0
bin	-0.26666666666667	0
bin	-0.23333333333333	0
bin	-0.2	0
bin	-0.16666666666667	0
bin	-0.13333333333333	0
bin	-0.1	0
bin	-0.066666666666667	0
bin	-0.033333333333333	0
bin	0	1
bin	0.033333333333333	0
bin	0.066666666666667	0
bin	0.1	0
bin	0.13333333333333	0
bin	0.16666666666667	0
bin	0.2	0
bin	0.23333333333333	0
bin	0.26666666666667	0
bin	0.3	0
bin	0.33333333333333	0
bin	0.36666666666667	0
bin	0.4	0
bin	0.43333333333333	0
bin	0.46666666666667	0
bin	0.5	0
scalar SemiDecentralized.host[12].wlan[0].radio 	bitrate:min 	54000000
attr interpolationmode  sample-hold
attr title  "tx bitrate, min"
attr unit  bps
scalar SemiDecentralized.host[12].wlan[0].radio 	bitrate:max 	54000000
attr interpolationmode  sample-hold
attr title  "tx bitrate, max"
attr unit  bps
scalar SemiDecentralized.host[12].wlan[0].radio 	bitrate:timeavg 	54000000
attr interpolationmode  sample-hold
attr title  "tx bitrate, timeavg"
attr unit  bps
statistic SemiDecentralized.host[12].udpApp[0] 	endToEndDelay:histogram
field count 1450
field mean 0.010183352818558
field stddev 0.0081514154230018
field sum 14.765861586909
field sqrsum 0.2466456140637
field min 0.001968507903
field max 0.062315602854
attr interpolationmode  none
attr source  messageAge(rcvdPk)
attr title  "end-to-end delay, histogram"
attr unit  s
bin	-INF	0
bin	-0.0254041769005	0
bin	-0.021754485593367	0
bin	-0.018104794286233	0
bin	-0.0144551029791	0
bin	-0.010805411671967	0
bin	-0.0071557203648333	0
bin	-0.0035060290577	0
bin	0.00014366224943334	188
bin	0.0037933535565667	552
bin	0.0074430448637	313
bin	0.011092736170833	95
bin	0.014742427477967	54
bin	0.0183921187851	92
bin	0.022041810092233	93
bin	0.025691501399367	19
bin	0.0293411927065	12
bin	0.032990884013633	9
bin	0.036640575320767	12
bin	0.0402902666279	4
bin	0.043939957935033	2
bin	0.047589649242167	0
bin	0.0512393405493	1
bin	0.054889031856433	3
bin	0.058538723163567	0
bin	0.0621884144707	1
bin	0.065838105777833	0
bin	0.069487797084967	0
bin	0.0731374883921	0
bin	0.076787179699233	0
bin	0.080436871006367	0
bin	0.0840865623135	0
scalar SemiDecentralized.host[12].udp 	droppedPkBadChecksum:count 	0
attr interpolationmode  none
attr title  "packets dropped (checksum error), count"
scalar SemiDecentralized.host[12].udp 	droppedPkWrongPort:count 	0
attr interpolationmode  none
attr title  "packets dropped (wrong port), count"
scalar SemiDecentralized.host[12].udp 	passedUpPk:count 	1450
attr interpolationmode  none
attr title  "packets passed up, count"
scalar SemiDecentralized.host[12].udp 	rcvdPk:count 	1450
attr interpolationmode  none
attr source  rcvdPk
attr title  "packets received, count"
scalar SemiDecentralized.host[12].udp 	rcvdPk:sum(packetBytes) 	754000
attr interpolationmode  none
attr source  rcvdPk
attr title  "packets received, sum(packetBytes)"
scalar SemiDecentralized.host[12].udp 	sentPk:count 	0
attr interpolationmode  none
attr source  sentPk
attr title  "packets sent, count"
scalar SemiDecentralized.host[12].udp 	sentPk:sum(packetBytes) 	0
attr interpolationmode  none
attr source  sentPk
attr title  "packets sent, sum(packetBytes)"
statistic SemiDecentralized.host[12].aodv 	NumSentAODVPackets
field count 112
field mean 56.5
field stddev 32.475631890183
field sum 6328
field sqrsum 474600
field min 1
field max 112
statistic SemiDecentralized.host[12].aodv 	NumReceivedAODVPackets
field count 10
field mean 5.5
field stddev 3.0276503540975
field sum 55
field sqrsum 385
field min 1
field max 10
scalar SemiDecentralized.host[12].aodv 	"Number of LinkBreaks" 	10
scalar SemiDecentralized.host[12].aodv 	RERRSentNow 	10
scalar SemiDecentralized.host[12].rsmgmnt 	"Number Received RouteResponses" 	32
scalar SemiDecentralized.host[12].rsmgmnt 	"Number Sent RREQs" 	32
scalar SemiDecentralized.host[13].wlan[0].mac 	"number of receiveunsigned d packets" 	0
scalar SemiDecentralized.host[13].wlan[0].mac 	"number of collisions" 	18935
scalar SemiDecentralized.host[13].wlan[0].mac 	"number of internal collisions" 	0
scalar SemiDecentralized.host[13].wlan[0].mac 	"number of retry for AC 0" 	4206
scalar SemiDecentralized.host[13].wlan[0].mac 	"sent and received bits" 	8237136
scalar SemiDecentralized.host[13].wlan[0].mac 	"sent packet within AC 0" 	1757
scalar SemiDecentralized.host[13].wlan[0].mac 	"sent in TXOP " 	0
scalar SemiDecentralized.host[13].wlan[0].mac 	"sentWithoutRetry AC 0" 	229
scalar SemiDecentralized.host[13].wlan[0].mac 	"numGivenUp AC 0" 	67
scalar SemiDecentralized.host[13].wlan[0].mac 	"numDropped AC 0" 	0
scalar SemiDecentralized.host[13].wlan[0].radio 	lossRate:min 	0
attr interpolationmode  backward-sample-hold
attr title  "packet loss rate, min"
scalar SemiDecentralized.host[13].wlan[0].radio 	lossRate:max 	0.58
attr interpolationmode  backward-sample-hold
attr title  "packet loss rate, max"
scalar SemiDecentralized.host[13].wlan[0].radio 	lossRate:timeavg 	0.24947455328074
attr interpolationmode  backward-sample-hold
attr title  "packet loss rate, timeavg"
statistic SemiDecentralized.host[13].wlan[0].radio 	channelNo:histogram
field count 1
field mean 0
field stddev -nan
field sum 0
field sqrsum 0
field min 0
field max 0
attr interpolationmode  sample-hold
attr title  "channel no, histogram"
bin	-INF	0
bin	-0.5	0
bin	-0.46666666666667	0
bin	-0.43333333333333	0
bin	-0.4	0
bin	-0.36666666666667	0
bin	-0.33333333333333	0
bin	-0.3	0
bin	-0.26666666666667	0
bin	-0.23333333333333	0
bin	-0.2	0
bin	-0.16666666666667	0
bin	-0.13333333333333	0
bin	-0.1	0
bin	-0.066666666666667	0
bin	-0.033333333333333	0
bin	0	1
bin	0.033333333333333	0
bin	0.066666666666667	0
bin	0.1	0
bin	0.13333333333333	0
bin	0.16666666666667	0
bin	0.2	0
bin	0.23333333333333	0
bin	0.26666666666667	0
bin	0.3	0
bin	0.33333333333333	0
bin	0.36666666666667	0
bin	0.4	0
bin	0.43333333333333	0
bin	0.46666666666667	0
bin	0.5	0
scalar SemiDecentralized.host[13].wlan[0].radio 	bitrate:min 	54000000
attr interpolationmode  sample-hold
attr title  "tx bitrate, min"
attr unit  bps
scalar SemiDecentralized.host[13].wlan[0].radio 	bitrate:max 	54000000
attr interpolationmode  sample-hold
attr title  "tx bitrate, max"
attr unit  bps
scalar SemiDecentralized.host[13].wlan[0].radio 	bitrate:timeavg 	54000000
attr interpolationmode  sample-hold
attr title  "tx bitrate, timeavg"
attr unit  bps
scalar SemiDecentralized.host[13].udpApp[0] 	"packets sent" 	1824
scalar SemiDecentralized.host[13].udpApp[0] 	"packets received" 	0
statistic SemiDecentralized.host[13].udpApp[0] 	rcvdPkLifetime:stats
field count 0
field mean -nan
field stddev -nan
field sum 0
field sqrsum 0
field min -nan
field max -nan
attr interpolationmode  none
attr source  messageAge(rcvdPk)
attr title  "received packet lifetime, stats"
attr unit  s
scalar SemiDecentralized.host[13].udp 	droppedPkBadChecksum:count 	0
attr interpolationmode  none
attr title  "packets dropped (checksum error), count"
scalar SemiDecentralized.host[13].udp 	droppedPkWrongPort:count 	0
attr interpolationmode  none
attr title  "packets dropped (wrong port), count"
scalar SemiDecentralized.host[13].udp 	passedUpPk:count 	0
attr interpolationmode  none
attr title  "packets passed up, count"
scalar SemiDecentralized.host[13].udp 	rcvdPk:count 	0
attr interpolationmode  none
attr source  rcvdPk
attr title  "packets received, count"
scalar SemiDecentralized.host[13].udp 	rcvdPk:sum(packetBytes) 	0
attr interpolationmode  none
attr source  rcvdPk
attr title  "packets received, sum(packetBytes)"
scalar SemiDecentralized.host[13].udp 	sentPk:count 	1824
attr interpolationmode  none
attr source  sentPk
attr title  "packets sent, count"
scalar SemiDecentralized.host[13].udp 	sentPk:sum(packetBytes) 	948480
attr interpolationmode  none
attr source  sentPk
attr title  "packets sent, sum(packetBytes)"
statistic SemiDecentralized.host[13].aodv 	NumSentAODVPackets
field count 202
field mean 101.5
field stddev 58.45653656065
field sum 20503
field sqrsum 2767905
field min 1
field max 202
statistic SemiDecentralized.host[13].aodv 	NumReceivedAODVPackets
field count 68
field mean 34.5
field stddev 19.773719933285
field sum 2346
field sqrsum 107134
field min 1
field max 68
scalar SemiDecentralized.host[13].aodv 	"Number of LinkBreaks" 	67
scalar SemiDecentralized.host[13].aodv 	RERRSentNow 	67
scalar SemiDecentralized.host[13].rsmgmnt 	"Number Received RouteResponses" 	202
scalar SemiDecentralized.host[13].rsmgmnt 	"Number Sent RREQs" 	202
scalar SemiDecentralized.host[14].wlan[0].mac 	"number of receiveunsigned d packets" 	7470
scalar SemiDecentralized.host[14].wlan[0].mac 	"number of collisions" 	29012
scalar SemiDecentralized.host[14].wlan[0].mac 	"number of internal collisions" 	0
scalar SemiDecentralized.host[14].wlan[0].mac 	"number of retry for AC 0" 	1888
scalar SemiDecentralized.host[14].wlan[0].mac 	"sent and received bits" 	25503760
scalar SemiDecentralized.host[14].wlan[0].mac 	"sent packet within AC 0" 	5465
scalar SemiDecentralized.host[14].wlan[0].mac 	"sent in TXOP " 	0
scalar SemiDecentralized.host[14].wlan[0].mac 	"sentWithoutRetry AC 0" 	4529
scalar SemiDecentralized.host[14].wlan[0].mac 	"numGivenUp AC 0" 	22
scalar SemiDecentralized.host[14].wlan[0].mac 	"numDropped AC 0" 	0
scalar SemiDecentralized.host[14].wlan[0].radio 	lossRate:min 	0
attr interpolationmode  backward-sample-hold
attr title  "packet loss rate, min"
scalar SemiDecentralized.host[14].wlan[0].radio 	lossRate:max 	0.56
attr interpolationmode  backward-sample-hold
attr title  "packet loss rate, max"
scalar SemiDecentralized.host[14].wlan[0].radio 	lossRate:timeavg 	0.19024037517677
attr interpolationmode  backward-sample-hold
attr title  "packet loss rate, timeavg"
statistic SemiDecentralized.host[14].wlan[0].radio 	channelNo:histogram
field count 1
field mean 0
field stddev -nan
field sum 0
field sqrsum 0
field min 0
field max 0
attr interpolationmode  sample-hold
attr title  "channel no, histogram"
bin	-INF	0
bin	-0.5	0
bin	-0.46666666666667	0
bin	-0.43333333333333	0
bin	-0.4	0
bin	-0.36666666666667	0
bin	-0.33333333333333	0
bin	-0.3	0
bin	-0.26666666666667	0
bin	-0.23333333333333	0
bin	-0.2	0
bin	-0.16666666666667	0
bin	-0.13333333333333	0
bin	-0.1	0
bin	-0.066666666666667	0
bin	-0.033333333333333	0
bin	0	1
bin	0.033333333333333	0
bin	0.066666666666667	0
bin	0.1	0
bin	0.13333333333333	0
bin	0.16666666666667	0
bin	0.2	0
bin	0.23333333333333	0
bin	0.26666666666667	0
bin	0.3	0
bin	0.33333333333333	0
bin	0.36666666666667	0
bin	0.4	0
bin	0.43333333333333	0
bin	0.46666666666667	0
bin	0.5	0
scalar SemiDecentralized.host[14].wlan[0].radio 	bitrate:min 	54000000
attr interpolationmode  sample-hold
attr title  "tx bitrate, min"
attr unit  bps
scalar SemiDecentralized.host[14].wlan[0].radio 	bitrate:max 	54000000
attr interpolationmode  sample-hold
attr title  "tx bitrate, max"
attr unit  bps
scalar SemiDecentralized.host[14].wlan[0].radio 	bitrate:timeavg 	54000000
attr interpolationmode  sample-hold
attr title  "tx bitrate, timeavg"
attr unit  bps
statistic SemiDecentralized.host[14].udpApp[0] 	endToEndDelay:histogram
field count 1783
field mean 0.0020446089085816
field stddev 0.0039002173587532
field sum 3.645537684001
field sqrsum 0.034560940109195
field min 0.00059890441
field max 0.039103934353
attr interpolationmode  none
attr source  messageAge(rcvdPk)
attr title  "end-to-end delay, histogram"
attr unit  s
bin	-INF	0
bin	-0.0186536105615	0
bin	-0.0160866085653	0
bin	-0.0135196065691	0
bin	-0.0109526045729	0
bin	-0.0083856025767	0
bin	-0.0058186005805	0
bin	-0.0032515985843	0
bin	-0.0006845965881	1402
bin	0.0018824054081	256
bin	0.0044494074043	28
bin	0.0070164094005	29
bin	0.0095834113967	12
bin	0.0121504133929	8
bin	0.0147174153891	7
bin	0.0172844173853	16
bin	0.0198514193815	7
bin	0.0224184213777	4
bin	0.0249854233739	5
bin	0.0275524253701	4
bin	0.0301194273663	1
bin	0.0326864293625	3
bin	0.0352534313587	0
bin	0.0378204333549	1
bin	0.0403874353511	0
bin	0.0429544373473	0
bin	0.0455214393435	0
bin	0.0480884413397	0
bin	0.0506554433359	0
bin	0.0532224453321	0
bin	0.0557894473283	0
bin	0.0583564493245	0
scalar SemiDecentralized.host[14].udp 	droppedPkBadChecksum:count 	0
attr interpolationmode  none
attr title  "packets dropped (checksum error), count"
scalar SemiDecentralized.host[14].udp 	droppedPkWrongPort:count 	0
attr interpolationmode  none
attr title  "packets dropped (wrong port), count"
scalar SemiDecentralized.host[14].udp 	passedUpPk:count 	1783
attr interpolationmode  none
attr title  "packets passed up, count"
scalar SemiDecentralized.host[14].udp 	rcvdPk:count 	1783
attr interpolationmode  none
attr source  rcvdPk
attr title  "packets received, count"
scalar SemiDecentralized.host[14].udp 	rcvdPk:sum(packetBytes) 	927160
attr interpolationmode  none
attr source  rcvdPk
attr title  "packets received, sum(packetBytes)"
scalar SemiDecentralized.host[14].udp 	sentPk:count 	0
attr interpolationmode  none
attr source  sentPk
attr title  "packets sent, count"
scalar SemiDecentralized.host[14].udp 	sentPk:sum(packetBytes) 	0
attr interpolationmode  none
attr source  sentPk
attr title  "packets sent, sum(packetBytes)"
statistic SemiDecentralized.host[14].aodv 	NumSentAODVPackets
field count 228
field mean 114.5
field stddev 65.962110336162
field sum 26106
field sqrsum 3976814
field min 1
field max 228
statistic SemiDecentralized.host[14].aodv 	NumReceivedAODVPackets
field count 21
field mean 11
field stddev 6.2048368229954
field sum 231
field sqrsum 3311
field min 1
field max 21
scalar SemiDecentralized.host[14].aodv 	"Number of LinkBreaks" 	22
scalar SemiDecentralized.host[14].aodv 	RERRSentNow 	21
scalar SemiDecentralized.host[14].rsmgmnt 	"Number Received RouteResponses" 	47
scalar SemiDecentralized.host[14].rsmgmnt 	"Number Sent RREQs" 	47
scalar SemiDecentralized.host[15].wlan[0].mac 	"number of receiveunsigned d packets" 	170
scalar SemiDecentralized.host[15].wlan[0].mac 	"number of collisions" 	17786
scalar SemiDecentralized.host[15].wlan[0].mac 	"number of internal collisions" 	0
scalar SemiDecentralized.host[15].wlan[0].mac 	"number of retry for AC 0" 	1125
scalar SemiDecentralized.host[15].wlan[0].mac 	"sent and received bits" 	9448192
scalar SemiDecentralized.host[15].wlan[0].mac 	"sent packet within AC 0" 	2017
scalar SemiDecentralized.host[15].wlan[0].mac 	"sent in TXOP " 	0
scalar SemiDecentralized.host[15].wlan[0].mac 	"sentWithoutRetry AC 0" 	1481
scalar SemiDecentralized.host[15].wlan[0].mac 	"numGivenUp AC 0" 	23
scalar SemiDecentralized.host[15].wlan[0].mac 	"numDropped AC 0" 	0
scalar SemiDecentralized.host[15].wlan[0].radio 	lossRate:min 	0
attr interpolationmode  backward-sample-hold
attr title  "packet loss rate, min"
scalar SemiDecentralized.host[15].wlan[0].radio 	lossRate:max 	0.6
attr interpolationmode  backward-sample-hold
attr title  "packet loss rate, max"
scalar SemiDecentralized.host[15].wlan[0].radio 	lossRate:timeavg 	0.30962223422032
attr interpolationmode  backward-sample-hold
attr title  "packet loss rate, timeavg"
statistic SemiDecentralized.host[15].wlan[0].radio 	channelNo:histogram
field count 1
field mean 0
field stddev -nan
field sum 0
field sqrsum 0
field min 0
field max 0
attr interpolationmode  sample-hold
attr title  "channel no, histogram"
bin	-INF	0
bin	-0.5	0
bin	-0.46666666666667	0
bin	-0.43333333333333	0
bin	-0.4	0
bin	-0.36666666666667	0
bin	-0.33333333333333	0
bin	-0.3	0
bin	-0.26666666666667	0
bin	-0.23333333333333	0
bin	-0.2	0
bin	-0.16666666666667	0
bin	-0.13333333333333	0
bin	-0.1	0
bin	-0.066666666666667	0
bin	-0.033333333333333	0
bin	0	1
bin	0.033333333333333	0
bin	0.066666666666667	0
bin	0.1	0
bin	0.13333333333333	0
bin	0.16666666666667	0
bin	0.2	0
bin	0.23333333333333	0
bin	0.26666666666667	0
bin	0.3	0
bin	0.33333333333333	0
bin	0.36666666666667	0
bin	0.4	0
bin	0.43333333333333	0
bin	0.46666666666667	0
bin	0.5	0
scalar SemiDecentralized.host[15].wlan[0].radio 	bitrate:min 	54000000
attr interpolationmode  sample-hold
attr title  "tx bitrate, min"
attr unit  bps
scalar SemiDecentralized.host[15].wlan[0].radio 	bitrate:max 	54000000
attr interpolationmode  sample-hold
attr title  "tx bitrate, max"
attr unit  bps
scalar SemiDecentralized.host[15].wlan[0].radio 	bitrate:timeavg 	54000000
attr interpolationmode  sample-hold
attr title  "tx bitrate, timeavg"
attr unit  bps
scalar SemiDecentralized.host[15].udpApp[0] 	"packets sent" 	1871
scalar SemiDecentralized.host[15].udpApp[0] 	"packets received" 	0
statistic SemiDecentralized.host[15].udpApp[0] 	rcvdPkLifetime:stats
field count 0
field mean -nan
field stddev -nan
field sum 0
field sqrsum 0
field min -nan
field max -nan
attr interpolationmode  none
attr source  messageAge(rcvdPk)
attr title  "received packet lifetime, stats"
attr unit  s
scalar SemiDecentralized.host[15].udp 	droppedPkBadChecksum:count 	0
attr interpolationmode  none
attr title  "packets dropped (checksum error), count"
scalar SemiDecentralized.host[15].udp 	droppedPkWrongPort:count 	0
attr interpolationmode  none
attr title  "packets dropped (wrong port), count"
scalar SemiDecentralized.host[15].udp 	passedUpPk:count 	0
attr interpolationmode  none
attr title  "packets passed up, count"
scalar SemiDecentralized.host[15].udp 	rcvdPk:count 	0
attr interpolationmode  none
attr source  rcvdPk
attr title  "packets received, count"
scalar SemiDecentralized.host[15].udp 	rcvdPk:sum(packetBytes) 	0
attr interpolationmode  none
attr source  rcvdPk
attr title  "packets received, sum(packetBytes)"
scalar SemiDecentralized.host[15].udp 	sentPk:count 	1871
attr interpolationmode  none
attr source  sentPk
attr title  "packets sent, count"
scalar SemiDecentralized.host[15].udp 	sentPk:sum(packetBytes) 	972920
attr interpolationmode  none
attr source  sentPk
attr title  "packets sent, sum(packetBytes)"
statistic SemiDecentralized.host[15].aodv 	NumSentAODVPackets
field count 74
field mean 37.5
field stddev 21.505813167607
field sum 2775
field sqrsum 137825
field min 1
field max 74
statistic SemiDecentralized.host[15].aodv 	NumReceivedAODVPackets
field count 24
field mean 12.5
field stddev 7.0710678118655
field sum 300
field sqrsum 4900
field min 1
field max 24
scalar SemiDecentralized.host[15].aodv 	"Number of LinkBreaks" 	23
scalar SemiDecentralized.host[15].aodv 	RERRSentNow 	23
scalar SemiDecentralized.host[15].rsmgmnt 	"Number Received RouteResponses" 	72
scalar SemiDecentralized.host[15].rsmgmnt 	"Number Sent RREQs" 	72
scalar SemiDecentralized.host[16].wlan[0].mac 	"number of receiveunsigned d packets" 	1695
[...]
scalar SemiDecentralized.host[59].wlan[0].mac 	"sent packet within AC 0" 	3475
scalar SemiDecentralized.host[59].wlan[0].mac 	"sent in TXOP " 	0
scalar SemiDecentralized.host[59].wlan[0].mac 	"sentWithoutRetry AC 0" 	2014
scalar SemiDecentralized.host[59].wlan[0].mac 	"numGivenUp AC 0" 	14
scalar SemiDecentralized.host[59].wlan[0].mac 	"numDropped AC 0" 	0
scalar SemiDecentralized.host[59].wlan[0].radio 	lossRate:min 	0
attr interpolationmode  backward-sample-hold
attr title  "packet loss rate, min"
scalar SemiDecentralized.host[59].wlan[0].radio 	lossRate:max 	0.58
attr interpolationmode  backward-sample-hold
attr title  "packet loss rate, max"
scalar SemiDecentralized.host[59].wlan[0].radio 	lossRate:timeavg 	0.17538864252223
attr interpolationmode  backward-sample-hold
attr title  "packet loss rate, timeavg"
statistic SemiDecentralized.host[59].wlan[0].radio 	channelNo:histogram
field count 1
field mean 0
field stddev -nan
field sum 0
field sqrsum 0
field min 0
field max 0
attr interpolationmode  sample-hold
attr title  "channel no, histogram"
bin	-INF	0
bin	-0.5	0
bin	-0.46666666666667	0
bin	-0.43333333333333	0
bin	-0.4	0
bin	-0.36666666666667	0
bin	-0.33333333333333	0
bin	-0.3	0
bin	-0.26666666666667	0
bin	-0.23333333333333	0
bin	-0.2	0
bin	-0.16666666666667	0
bin	-0.13333333333333	0
bin	-0.1	0
bin	-0.066666666666667	0
bin	-0.033333333333333	0
bin	0	1
bin	0.033333333333333	0
bin	0.066666666666667	0
bin	0.1	0
bin	0.13333333333333	0
bin	0.16666666666667	0
bin	0.2	0
bin	0.23333333333333	0
bin	0.26666666666667	0
bin	0.3	0
bin	0.33333333333333	0
bin	0.36666666666667	0
bin	0.4	0
bin	0.43333333333333	0
bin	0.46666666666667	0
bin	0.5	0
scalar SemiDecentralized.host[59].wlan[0].radio 	bitrate:min 	54000000
attr interpolationmode  sample-hold
attr title  "tx bitrate, min"
attr unit  bps
scalar SemiDecentralized.host[59].wlan[0].radio 	bitrate:max 	54000000
attr interpolationmode  sample-hold
attr title  "tx bitrate, max"
attr unit  bps
scalar SemiDecentralized.host[59].wlan[0].radio 	bitrate:timeavg 	54000000
attr interpolationmode  sample-hold
attr title  "tx bitrate, timeavg"
attr unit  bps
scalar SemiDecentralized.host[59].udpApp[0] 	"packets sent" 	1875
scalar SemiDecentralized.host[59].udpApp[0] 	"packets received" 	0
statistic SemiDecentralized.host[59].udpApp[0] 	rcvdPkLifetime:stats
field count 0
field mean -nan
field stddev -nan
field sum 0
field sqrsum 0
field min -nan
field max -nan
attr interpolationmode  none
attr source  messageAge(rcvdPk)
attr title  "received packet lifetime, stats"
attr unit  s
scalar SemiDecentralized.host[59].udp 	droppedPkBadChecksum:count 	0
attr interpolationmode  none
attr title  "packets dropped (checksum error), count"
scalar SemiDecentralized.host[59].udp 	droppedPkWrongPort:count 	0
attr interpolationmode  none
attr title  "packets dropped (wrong port), count"
scalar SemiDecentralized.host[59].udp 	passedUpPk:count 	0
attr interpolationmode  none
attr title  "packets passed up, count"
scalar SemiDecentralized.host[59].udp 	rcvdPk:count 	0
attr interpolationmode  none
attr source  rcvdPk
attr title  "packets received, count"
scalar SemiDecentralized.host[59].udp 	rcvdPk:sum(packetBytes) 	0
attr interpolationmode  none
attr source  rcvdPk
attr title  "packets received, sum(packetBytes)"
scalar SemiDecentralized.host[59].udp 	sentPk:count 	1875
attr interpolationmode  none
attr source  sentPk
attr title  "packets sent, count"
scalar SemiDecentralized.host[59].udp 	sentPk:sum(packetBytes) 	975000
attr interpolationmode  none
attr source  sentPk
attr title  "packets sent, sum(packetBytes)"
statistic SemiDecentralized.host[59].aodv 	NumSentAODVPackets
field count 75
field mean 38
field stddev 21.794494717703
field sum 2850
field sqrsum 143450
field min 1
field max 75
statistic SemiDecentralized.host[59].aodv 	NumReceivedAODVPackets
field count 15
field mean 8
field stddev 4.4721359549996
field sum 120
field sqrsum 1240
field min 1
field max 15
scalar SemiDecentralized.host[59].aodv 	"Number of LinkBreaks" 	14
scalar SemiDecentralized.host[59].aodv 	RERRSentNow 	14
scalar SemiDecentralized.host[59].rsmgmnt 	"Number Received RouteResponses" 	49
scalar SemiDecentralized.host[59].rsmgmnt 	"Number Sent RREQs" 	49
scalar SemiDecentralized.host[60].wlan[0].mac 	"number of receiveunsigned d packets" 	0
scalar SemiDecentralized.host[60].wlan[0].mac 	"number of collisions" 	14873
scalar SemiDecentralized.host[60].wlan[0].mac 	"number of internal collisions" 	0
scalar SemiDecentralized.host[60].wlan[0].mac 	"number of retry for AC 0" 	0
scalar SemiDecentralized.host[60].wlan[0].mac 	"sent and received bits" 	57536
scalar SemiDecentralized.host[60].wlan[0].mac 	"sent packet within AC 0" 	0
scalar SemiDecentralized.host[60].wlan[0].mac 	"sent in TXOP " 	0
scalar SemiDecentralized.host[60].wlan[0].mac 	"sentWithoutRetry AC 0" 	0
scalar SemiDecentralized.host[60].wlan[0].mac 	"numGivenUp AC 0" 	0
scalar SemiDecentralized.host[60].wlan[0].mac 	"numDropped AC 0" 	0
scalar SemiDecentralized.host[60].wlan[0].radio 	lossRate:min 	0.06
attr interpolationmode  backward-sample-hold
attr title  "packet loss rate, min"
scalar SemiDecentralized.host[60].wlan[0].radio 	lossRate:max 	0.66
attr interpolationmode  backward-sample-hold
attr title  "packet loss rate, max"
scalar SemiDecentralized.host[60].wlan[0].radio 	lossRate:timeavg 	0.32429871180604
attr interpolationmode  backward-sample-hold
attr title  "packet loss rate, timeavg"
statistic SemiDecentralized.host[60].wlan[0].radio 	channelNo:histogram
field count 1
field mean 0
field stddev -nan
field sum 0
field sqrsum 0
field min 0
field max 0
attr interpolationmode  sample-hold
attr title  "channel no, histogram"
bin	-INF	0
bin	-0.5	0
bin	-0.46666666666667	0
bin	-0.43333333333333	0
bin	-0.4	0
bin	-0.36666666666667	0
bin	-0.33333333333333	0
bin	-0.3	0
bin	-0.26666666666667	0
bin	-0.23333333333333	0
bin	-0.2	0
bin	-0.16666666666667	0
bin	-0.13333333333333	0
bin	-0.1	0
bin	-0.066666666666667	0
bin	-0.033333333333333	0
bin	0	1
bin	0.033333333333333	0
bin	0.066666666666667	0
bin	0.1	0
bin	0.13333333333333	0
bin	0.16666666666667	0
bin	0.2	0
bin	0.23333333333333	0
bin	0.26666666666667	0
bin	0.3	0
bin	0.33333333333333	0
bin	0.36666666666667	0
bin	0.4	0
bin	0.43333333333333	0
bin	0.46666666666667	0
bin	0.5	0
scalar SemiDecentralized.host[60].wlan[0].radio 	bitrate:min 	54000000
attr interpolationmode  sample-hold
attr title  "tx bitrate, min"
attr unit  bps
scalar SemiDecentralized.host[60].wlan[0].radio 	bitrate:max 	54000000
attr interpolationmode  sample-hold
attr title  "tx bitrate, max"
attr unit  bps
scalar SemiDecentralized.host[60].wlan[0].radio 	bitrate:timeavg 	54000000
attr interpolationmode  sample-hold
attr title  "tx bitrate, timeavg"
attr unit  bps
statistic SemiDecentralized.host[60].aodv 	NumSentAODVPackets
field count 0
field mean -nan
field stddev -nan
field sum 0
field sqrsum 0
field min -nan
field max -nan
statistic SemiDecentralized.host[60].aodv 	NumReceivedAODVPackets
field count 0
field mean -nan
field stddev -nan
field sum 0
field sqrsum 0
field min -nan
field max -nan
scalar SemiDecentralized.host[60].aodv 	"Number of LinkBreaks" 	0
scalar SemiDecentralized.host[60].aodv 	RERRSentNow 	0
scalar SemiDecentralized.host[60].rsmgmnt 	"Number Received RouteResponses" 	0
scalar SemiDecentralized.host[60].rsmgmnt 	"Number Sent RREQs" 	0
scalar SemiDecentralized.host[61].wlan[0].mac 	"number of receiveunsigned d packets" 	8194
scalar SemiDecentralized.host[61].wlan[0].mac 	"number of collisions" 	29707
scalar SemiDecentralized.host[61].wlan[0].mac 	"number of internal collisions" 	0
scalar SemiDecentralized.host[61].wlan[0].mac 	"number of retry for AC 0" 	2131
scalar SemiDecentralized.host[61].wlan[0].mac 	"sent and received bits" 	36282400
scalar SemiDecentralized.host[61].wlan[0].mac 	"sent packet within AC 0" 	7780
scalar SemiDecentralized.host[61].wlan[0].mac 	"sent in TXOP " 	0
scalar SemiDecentralized.host[61].wlan[0].mac 	"sentWithoutRetry AC 0" 	6605
scalar SemiDecentralized.host[61].wlan[0].mac 	"numGivenUp AC 0" 	15
scalar SemiDecentralized.host[61].wlan[0].mac 	"numDropped AC 0" 	0
scalar SemiDecentralized.host[61].wlan[0].radio 	lossRate:min 	0
attr interpolationmode  backward-sample-hold
attr title  "packet loss rate, min"
scalar SemiDecentralized.host[61].wlan[0].radio 	lossRate:max 	0.6
attr interpolationmode  backward-sample-hold
attr title  "packet loss rate, max"
scalar SemiDecentralized.host[61].wlan[0].radio 	lossRate:timeavg 	0.17184973245344
attr interpolationmode  backward-sample-hold
attr title  "packet loss rate, timeavg"
statistic SemiDecentralized.host[61].wlan[0].radio 	channelNo:histogram
field count 1
field mean 0
field stddev -nan
field sum 0
field sqrsum 0
field min 0
field max 0
attr interpolationmode  sample-hold
attr title  "channel no, histogram"
bin	-INF	0
bin	-0.5	0
bin	-0.46666666666667	0
bin	-0.43333333333333	0
bin	-0.4	0
bin	-0.36666666666667	0
bin	-0.33333333333333	0
bin	-0.3	0
bin	-0.26666666666667	0
bin	-0.23333333333333	0
bin	-0.2	0
bin	-0.16666666666667	0
bin	-0.13333333333333	0
bin	-0.1	0
bin	-0.066666666666667	0
bin	-0.033333333333333	0
bin	0	1
bin	0.033333333333333	0
bin	0.066666666666667	0
bin	0.1	0
bin	0.13333333333333	0
bin	0.16666666666667	0
bin	0.2	0
bin	0.23333333333333	0
bin	0.26666666666667	0
bin	0.3	0
bin	0.33333333333333	0
bin	0.36666666666667	0
bin	0.4	0
bin	0.43333333333333	0
bin	0.46666666666667	0
bin	0.5	0
scalar SemiDecentralized.host[61].wlan[0].radio 	bitrate:min 	54000000
attr interpolationmode  sample-hold
attr title  "tx bitrate, min"
attr unit  bps
scalar SemiDecentralized.host[61].wlan[0].radio 	bitrate:max 	54000000
attr interpolationmode  sample-hold
attr title  "tx bitrate, max"
attr unit  bps
scalar SemiDecentralized.host[61].wlan[0].radio 	bitrate:timeavg 	54000000
attr interpolationmode  sample-hold
attr title  "tx bitrate, timeavg"
attr unit  bps
statistic SemiDecentralized.host[61].aodv 	NumSentAODVPackets
field count 429
field mean 215
field stddev 123.98588629356
field sum 92235
field sqrsum 26409955
field min 1
field max 429
statistic SemiDecentralized.host[61].aodv 	NumReceivedAODVPackets
field count 17
field mean 9
field stddev 5.049752469181
field sum 153
field sqrsum 1785
field min 1
field max 17
scalar SemiDecentralized.host[61].aodv 	"Number of LinkBreaks" 	15
scalar SemiDecentralized.host[61].aodv 	RERRSentNow 	17
scalar SemiDecentralized.host[61].rsmgmnt 	"Number Received RouteResponses" 	60
scalar SemiDecentralized.host[61].rsmgmnt 	"Number Sent RREQs" 	60
scalar SemiDecentralized.host[62].wlan[0].mac 	"number of receiveunsigned d packets" 	1138
scalar SemiDecentralized.host[62].wlan[0].mac 	"number of collisions" 	17966
scalar SemiDecentralized.host[62].wlan[0].mac 	"number of internal collisions" 	0
scalar SemiDecentralized.host[62].wlan[0].mac 	"number of retry for AC 0" 	603
scalar SemiDecentralized.host[62].wlan[0].mac 	"sent and received bits" 	5105824
scalar SemiDecentralized.host[62].wlan[0].mac 	"sent packet within AC 0" 	1085
scalar SemiDecentralized.host[62].wlan[0].mac 	"sent in TXOP " 	0
scalar SemiDecentralized.host[62].wlan[0].mac 	"sentWithoutRetry AC 0" 	860
scalar SemiDecentralized.host[62].wlan[0].mac 	"numGivenUp AC 0" 	21
scalar SemiDecentralized.host[62].wlan[0].mac 	"numDropped AC 0" 	0
scalar SemiDecentralized.host[62].wlan[0].radio 	lossRate:min 	0
attr interpolationmode  backward-sample-hold
attr title  "packet loss rate, min"
scalar SemiDecentralized.host[62].wlan[0].radio 	lossRate:max 	0.54
attr interpolationmode  backward-sample-hold
attr title  "packet loss rate, max"
scalar SemiDecentralized.host[62].wlan[0].radio 	lossRate:timeavg 	0.21122380916729
attr interpolationmode  backward-sample-hold
attr title  "packet loss rate, timeavg"
statistic SemiDecentralized.host[62].wlan[0].radio 	channelNo:histogram
field count 1
field mean 0
field stddev -nan
field sum 0
field sqrsum 0
field min 0
field max 0
attr interpolationmode  sample-hold
attr title  "channel no, histogram"
bin	-INF	0
bin	-0.5	0
bin	-0.46666666666667	0
bin	-0.43333333333333	0
bin	-0.4	0
bin	-0.36666666666667	0
bin	-0.33333333333333	0
bin	-0.3	0
bin	-0.26666666666667	0
bin	-0.23333333333333	0
bin	-0.2	0
bin	-0.16666666666667	0
bin	-0.13333333333333	0
bin	-0.1	0
bin	-0.066666666666667	0
bin	-0.033333333333333	0
bin	0	1
bin	0.033333333333333	0
bin	0.066666666666667	0
bin	0.1	0
bin	0.13333333333333	0
bin	0.16666666666667	0
bin	0.2	0
bin	0.23333333333333	0
bin	0.26666666666667	0
bin	0.3	0
bin	0.33333333333333	0
bin	0.36666666666667	0
bin	0.4	0
bin	0.43333333333333	0
bin	0.46666666666667	0
bin	0.5	0
scalar SemiDecentralized.host[62].wlan[0].radio 	bitrate:min 	54000000
attr interpolationmode  sample-hold
attr title  "tx bitrate, min"
attr unit  bps
scalar SemiDecentralized.host[62].wlan[0].radio 	bitrate:max 	54000000
attr interpolationmode  sample-hold
attr title  "tx bitrate, max"
attr unit  bps
scalar SemiDecentralized.host[62].wlan[0].radio 	bitrate:timeavg 	54000000
attr interpolationmode  sample-hold
attr title  "tx bitrate, timeavg"
attr unit  bps
statistic SemiDecentralized.host[62].aodv 	NumSentAODVPackets
field count 88
field mean 44.5
field stddev 25.547341675146
field sum 3916
field sqrsum 231044
field min 1
field max 88
statistic SemiDecentralized.host[62].aodv 	NumReceivedAODVPackets
field count 21
field mean 11
field stddev 6.2048368229954
field sum 231
field sqrsum 3311
field min 1
field max 21
scalar SemiDecentralized.host[62].aodv 	"Number of LinkBreaks" 	21
scalar SemiDecentralized.host[62].aodv 	RERRSentNow 	21
scalar SemiDecentralized.host[62].rsmgmnt 	"Number Received RouteResponses" 	57
scalar SemiDecentralized.host[62].rsmgmnt 	"Number Sent RREQs" 	57
scalar SemiDecentralized.host[63].wlan[0].mac 	"number of receiveunsigned d packets" 	3183
scalar SemiDecentralized.host[63].wlan[0].mac 	"number of collisions" 	44435
scalar SemiDecentralized.host[63].wlan[0].mac 	"number of internal collisions" 	0
scalar SemiDecentralized.host[63].wlan[0].mac 	"number of retry for AC 0" 	1004
scalar SemiDecentralized.host[63].wlan[0].mac 	"sent and received bits" 	14552416
scalar SemiDecentralized.host[63].wlan[0].mac 	"sent packet within AC 0" 	3115
scalar SemiDecentralized.host[63].wlan[0].mac 	"sent in TXOP " 	0
scalar SemiDecentralized.host[63].wlan[0].mac 	"sentWithoutRetry AC 0" 	2587
scalar SemiDecentralized.host[63].wlan[0].mac 	"numGivenUp AC 0" 	5
scalar SemiDecentralized.host[63].wlan[0].mac 	"numDropped AC 0" 	0
scalar SemiDecentralized.host[63].wlan[0].radio 	lossRate:min 	0
attr interpolationmode  backward-sample-hold
attr title  "packet loss rate, min"
scalar SemiDecentralized.host[63].wlan[0].radio 	lossRate:max 	0.56
attr interpolationmode  backward-sample-hold
attr title  "packet loss rate, max"
scalar SemiDecentralized.host[63].wlan[0].radio 	lossRate:timeavg 	0.19252577154286
attr interpolationmode  backward-sample-hold
attr title  "packet loss rate, timeavg"
statistic SemiDecentralized.host[63].wlan[0].radio 	channelNo:histogram
field count 1
field mean 0
field stddev -nan
field sum 0
field sqrsum 0
field min 0
field max 0
attr interpolationmode  sample-hold
attr title  "channel no, histogram"
bin	-INF	0
bin	-0.5	0
bin	-0.46666666666667	0
bin	-0.43333333333333	0
bin	-0.4	0
bin	-0.36666666666667	0
bin	-0.33333333333333	0
bin	-0.3	0
bin	-0.26666666666667	0
bin	-0.23333333333333	0
bin	-0.2	0
bin	-0.16666666666667	0
bin	-0.13333333333333	0
bin	-0.1	0
bin	-0.066666666666667	0
bin	-0.033333333333333	0
bin	0	1
bin	0.033333333333333	0
bin	0.066666666666667	0
bin	0.1	0
bin	0.13333333333333	0
bin	0.16666666666667	0
bin	0.2	0
bin	0.23333333333333	0
bin	0.26666666666667	0
bin	0.3	0
bin	0.33333333333333	0
bin	0.36666666666667	0
bin	0.4	0
bin	0.43333333333333	0
bin	0.46666666666667	0
bin	0.5	0
scalar SemiDecentralized.host[63].wlan[0].radio 	bitrate:min 	54000000
attr interpolationmode  sample-hold
attr title  "tx bitrate, min"
attr unit  bps
scalar SemiDecentralized.host[63].wlan[0].radio 	bitrate:max 	54000000
attr interpolationmode  sample-hold
attr title  "tx bitrate, max"
attr unit  bps
scalar SemiDecentralized.host[63].wlan[0].radio 	bitrate:timeavg 	54000000
attr interpolationmode  sample-hold
attr title  "tx bitrate, timeavg"
attr unit  bps
statistic SemiDecentralized.host[63].aodv 	NumSentAODVPackets
field count 73
field mean 37
field stddev 21.217131442932
field sum 2701
field sqrsum 132349
field min 1
field max 73
statistic SemiDecentralized.host[63].aodv 	NumReceivedAODVPackets
field count 6
field mean 3.5
field stddev 1.870828693387
field sum 21
field sqrsum 91
field min 1
field max 6
scalar SemiDecentralized.host[63].aodv 	"Number of LinkBreaks" 	5
scalar SemiDecentralized.host[63].aodv 	RERRSentNow 	6
scalar SemiDecentralized.host[63].rsmgmnt 	"Number Received RouteResponses" 	16
scalar SemiDecentralized.host[63].rsmgmnt 	"Number Sent RREQs" 	16
scalar SemiDecentralized.host[64].wlan[0].mac 	"number of receiveunsigned d packets" 	0
scalar SemiDecentralized.host[64].wlan[0].mac 	"number of collisions" 	11834
scalar SemiDecentralized.host[64].wlan[0].mac 	"number of internal collisions" 	0
scalar SemiDecentralized.host[64].wlan[0].mac 	"number of retry for AC 0" 	0
scalar SemiDecentralized.host[64].wlan[0].mac 	"sent and received bits" 	56544
scalar SemiDecentralized.host[64].wlan[0].mac 	"sent packet within AC 0" 	0
scalar SemiDecentralized.host[64].wlan[0].mac 	"sent in TXOP " 	0
scalar SemiDecentralized.host[64].wlan[0].mac 	"sentWithoutRetry AC 0" 	0
scalar SemiDecentralized.host[64].wlan[0].mac 	"numGivenUp AC 0" 	0
scalar SemiDecentralized.host[64].wlan[0].mac 	"numDropped AC 0" 	0
scalar SemiDecentralized.host[64].wlan[0].radio 	lossRate:min 	0.02
attr interpolationmode  backward-sample-hold
attr title  "packet loss rate, min"
scalar SemiDecentralized.host[64].wlan[0].radio 	lossRate:max 	0.76
attr interpolationmode  backward-sample-hold
attr title  "packet loss rate, max"
scalar SemiDecentralized.host[64].wlan[0].radio 	lossRate:timeavg 	0.47625754051014
attr interpolationmode  backward-sample-hold
attr title  "packet loss rate, timeavg"
statistic SemiDecentralized.host[64].wlan[0].radio 	channelNo:histogram
field count 1
field mean 0
field stddev -nan
field sum 0
field sqrsum 0
field min 0
field max 0
attr interpolationmode  sample-hold
attr title  "channel no, histogram"
bin	-INF	0
bin	-0.5	0
bin	-0.46666666666667	0
bin	-0.43333333333333	0
bin	-0.4	0
bin	-0.36666666666667	0
bin	-0.33333333333333	0
bin	-0.3	0
bin	-0.26666666666667	0
bin	-0.23333333333333	0
bin	-0.2	0
bin	-0.16666666666667	0
bin	-0.13333333333333	0
bin	-0.1	0
bin	-0.066666666666667	0
bin	-0.033333333333333	0
bin	0	1
bin	0.033333333333333	0
bin	0.066666666666667	0
bin	0.1	0
bin	0.13333333333333	0
bin	0.16666666666667	0
bin	0.2	0
bin	0.23333333333333	0
bin	0.26666666666667	0
bin	0.3	0
bin	0.33333333333333	0
bin	0.36666666666667	0
bin	0.4	0
bin	0.43333333333333	0
bin	0.46666666666667	0
bin	0.5	0
scalar SemiDecentralized.host[64].wlan[0].radio 	bitrate:min 	54000000
attr interpolationmode  sample-hold
attr title  "tx bitrate, min"
attr unit  bps
scalar SemiDecentralized.host[64].wlan[0].radio 	bitrate:max 	54000000
attr interpolationmode  sample-hold
attr title  "tx bitrate, max"
attr unit  bps
scalar SemiDecentralized.host[64].wlan[0].radio 	bitrate:timeavg 	54000000
attr interpolationmode  sample-hold
attr title  "tx bitrate, timeavg"
attr unit  bps
statistic SemiDecentralized.host[64].aodv 	NumSentAODVPackets
field count 0
field mean -nan
field stddev -nan
field sum 0
field sqrsum 0
field min -nan
field max -nan
statistic SemiDecentralized.host[64].aodv 	NumReceivedAODVPackets
field count 0
field mean -nan
field stddev -nan
field sum 0
field sqrsum 0
field min -nan
field max -nan
scalar SemiDecentralized.host[64].aodv 	"Number of LinkBreaks" 	0
scalar SemiDecentralized.host[64].aodv 	RERRSentNow 	0
scalar SemiDecentralized.host[64].rsmgmnt 	"Number Received RouteResponses" 	0
scalar SemiDecentralized.host[64].rsmgmnt 	"Number Sent RREQs" 	0
