version 2
run General-0-20150726-14:15:52-18897
attr configname General
attr datetime 20150726-14:15:52
attr experiment General
attr inifile omnetpp.ini
attr iterationvars $0=30
attr iterationvars2 "$0=30, $repetition=0"
attr measurement $0=30
attr network SemiDecentralized
attr processid 18897
attr repetition 0
attr replication #0
attr resultdir MobileThirtySourceDest
attr runnumber 0
attr seedset 0

scalar SemiDecentralized.host[0].wlan[0].mac 	"number of receiveunsigned d packets" 	18
scalar SemiDecentralized.host[0].wlan[0].mac 	"number of collisions" 	27
scalar SemiDecentralized.host[0].wlan[0].mac 	"number of internal collisions" 	0
scalar SemiDecentralized.host[0].wlan[0].mac 	"number of retry for AC 0" 	0
scalar SemiDecentralized.host[0].wlan[0].mac 	"sent and received bits" 	107760
scalar SemiDecentralized.host[0].wlan[0].mac 	"sent packet within AC 0" 	10
scalar SemiDecentralized.host[0].wlan[0].mac 	"sent in TXOP " 	0
scalar SemiDecentralized.host[0].wlan[0].mac 	"sentWithoutRetry AC 0" 	10
scalar SemiDecentralized.host[0].wlan[0].mac 	"numGivenUp AC 0" 	0
scalar SemiDecentralized.host[0].wlan[0].mac 	"numDropped AC 0" 	0
scalar SemiDecentralized.host[0].wlan[0].radio 	lossRate:min 	0
attr interpolationmode  backward-sample-hold
attr title  "packet loss rate, min"
scalar SemiDecentralized.host[0].wlan[0].radio 	lossRate:max 	0.04
attr interpolationmode  backward-sample-hold
attr title  "packet loss rate, max"
scalar SemiDecentralized.host[0].wlan[0].radio 	lossRate:timeavg 	0.0085190603311517
attr interpolationmode  backward-sample-hold
attr title  "packet loss rate, timeavg"
statistic SemiDecentralized.host[0].wlan[0].radio 	channelNo:histogram
field count 1
field mean 0
field stddev -nan
field sum 0
field sqrsum 0
field min 0
field max 0
attr interpolationmode  sample-hold
attr title  "channel no, histogram"
bin	-INF	0
bin	-0.5	0
bin	-0.46666666666667	0
bin	-0.43333333333333	0
bin	-0.4	0
bin	-0.36666666666667	0
bin	-0.33333333333333	0
bin	-0.3	0
bin	-0.26666666666667	0
bin	-0.23333333333333	0
bin	-0.2	0
bin	-0.16666666666667	0
bin	-0.13333333333333	0
bin	-0.1	0
bin	-0.066666666666667	0
bin	-0.033333333333333	0
bin	0	1
bin	0.033333333333333	0
bin	0.066666666666667	0
bin	0.1	0
bin	0.13333333333333	0
bin	0.16666666666667	0
bin	0.2	0
bin	0.23333333333333	0
bin	0.26666666666667	0
bin	0.3	0
bin	0.33333333333333	0
bin	0.36666666666667	0
bin	0.4	0
bin	0.43333333333333	0
bin	0.46666666666667	0
bin	0.5	0
scalar SemiDecentralized.host[0].wlan[0].radio 	bitrate:min 	54000000
attr interpolationmode  sample-hold
attr title  "tx bitrate, min"
attr unit  bps
scalar SemiDecentralized.host[0].wlan[0].radio 	bitrate:max 	54000000
attr interpolationmode  sample-hold
attr title  "tx bitrate, max"
attr unit  bps
scalar SemiDecentralized.host[0].wlan[0].radio 	bitrate:timeavg 	54000000
attr interpolationmode  sample-hold
attr title  "tx bitrate, timeavg"
attr unit  bps
statistic SemiDecentralized.host[0].udpApp[0] 	endToEndDelay:histogram
field count 6
field mean 0.0027654177663333
field stddev 0.0014164164968697
field sum 0.016592506598
field sqrsum 5.5916390997135e-05
field min 0.000866494045
field max 0.004452220023
attr interpolationmode  none
attr source  messageAge(rcvdPk)
attr title  "end-to-end delay, histogram"
attr unit  s
bin	-INF	0
bin	-0.000926368944	0
bin	-0.00068732054546667	0
bin	-0.00044827214693333	0
bin	-0.0002092237484	0
bin	2.9824650133333e-05	0
bin	0.00026887304866667	0
bin	0.0005079214472	0
bin	0.00074696984573333	1
bin	0.00098601824426667	0
bin	0.0012250666428	0
bin	0.0014641150413333	0
bin	0.0017031634398667	1
bin	0.0019422118384	1
bin	0.0021812602369333	0
bin	0.0024203086354667	0
bin	0.002659357034	0
bin	0.0028984054325333	0
bin	0.0031374538310667	0
bin	0.0033765022296	0
bin	0.0036155506281333	2
bin	0.0038545990266667	0
bin	0.0040936474252	0
bin	0.0043326958237333	1
bin	0.0045717442222667	0
bin	0.0048107926208	0
bin	0.0050498410193333	0
bin	0.0052888894178667	0
bin	0.0055279378164	0
bin	0.0057669862149333	0
bin	0.0060060346134667	0
bin	0.006245083012	0
scalar SemiDecentralized.host[0].udp 	droppedPkBadChecksum:count 	0
attr interpolationmode  none
attr title  "packets dropped (checksum error), count"
scalar SemiDecentralized.host[0].udp 	droppedPkWrongPort:count 	0
attr interpolationmode  none
attr title  "packets dropped (wrong port), count"
scalar SemiDecentralized.host[0].udp 	passedUpPk:count 	6
attr interpolationmode  none
attr title  "packets passed up, count"
scalar SemiDecentralized.host[0].udp 	rcvdPk:count 	6
attr interpolationmode  none
attr source  rcvdPk
attr title  "packets received, count"
scalar SemiDecentralized.host[0].udp 	rcvdPk:sum(packetBytes) 	3120
attr interpolationmode  none
attr source  rcvdPk
attr title  "packets received, sum(packetBytes)"
scalar SemiDecentralized.host[0].udp 	sentPk:count 	0
attr interpolationmode  none
attr source  sentPk
attr title  "packets sent, count"
scalar SemiDecentralized.host[0].udp 	sentPk:sum(packetBytes) 	0
attr interpolationmode  none
attr source  sentPk
attr title  "packets sent, sum(packetBytes)"
statistic SemiDecentralized.host[0].aodv 	NumSentAODVPackets
field count 12
field mean 6.5
field stddev 3.605551275464
field sum 78
field sqrsum 650
field min 1
field max 12
statistic SemiDecentralized.host[0].aodv 	NumReceivedAODVPackets
field count 1
field mean 1
field stddev -nan
field sum 1
field sqrsum 1
field min 1
field max 1
scalar SemiDecentralized.host[0].aodv 	"Number of LinkBreaks" 	0
scalar SemiDecentralized.host[0].aodv 	RERRSentNow 	1
scalar SemiDecentralized.host[0].rsmgmnt 	RREQSent:count 	1
scalar SemiDecentralized.host[0].rsmgmnt 	RREPSent:count 	1
scalar SemiDecentralized.host[1].wlan[0].mac 	"number of receiveunsigned d packets" 	6
scalar SemiDecentralized.host[1].wlan[0].mac 	"number of collisions" 	29
scalar SemiDecentralized.host[1].wlan[0].mac 	"number of internal collisions" 	0
scalar SemiDecentralized.host[1].wlan[0].mac 	"number of retry for AC 0" 	0
scalar SemiDecentralized.host[1].wlan[0].mac 	"sent and received bits" 	116384
scalar SemiDecentralized.host[1].wlan[0].mac 	"sent packet within AC 0" 	12
scalar SemiDecentralized.host[1].wlan[0].mac 	"sent in TXOP " 	0
scalar SemiDecentralized.host[1].wlan[0].mac 	"sentWithoutRetry AC 0" 	12
scalar SemiDecentralized.host[1].wlan[0].mac 	"numGivenUp AC 0" 	0
scalar SemiDecentralized.host[1].wlan[0].mac 	"numDropped AC 0" 	0
scalar SemiDecentralized.host[1].wlan[0].radio 	lossRate:min 	0
attr interpolationmode  backward-sample-hold
attr title  "packet loss rate, min"
scalar SemiDecentralized.host[1].wlan[0].radio 	lossRate:max 	0.06
attr interpolationmode  backward-sample-hold
attr title  "packet loss rate, max"
scalar SemiDecentralized.host[1].wlan[0].radio 	lossRate:timeavg 	0.0086472852806575
attr interpolationmode  backward-sample-hold
attr title  "packet loss rate, timeavg"
statistic SemiDecentralized.host[1].wlan[0].radio 	channelNo:histogram
field count 1
field mean 0
field stddev -nan
field sum 0
field sqrsum 0
field min 0
field max 0
attr interpolationmode  sample-hold
attr title  "channel no, histogram"
bin	-INF	0
bin	-0.5	0
bin	-0.46666666666667	0
bin	-0.43333333333333	0
bin	-0.4	0
bin	-0.36666666666667	0
bin	-0.33333333333333	0
bin	-0.3	0
bin	-0.26666666666667	0
bin	-0.23333333333333	0
bin	-0.2	0
bin	-0.16666666666667	0
bin	-0.13333333333333	0
bin	-0.1	0
bin	-0.066666666666667	0
bin	-0.033333333333333	0
bin	0	1
bin	0.033333333333333	0
bin	0.066666666666667	0
bin	0.1	0
bin	0.13333333333333	0
bin	0.16666666666667	0
bin	0.2	0
bin	0.23333333333333	0
bin	0.26666666666667	0
bin	0.3	0
bin	0.33333333333333	0
bin	0.36666666666667	0
bin	0.4	0
bin	0.43333333333333	0
bin	0.46666666666667	0
bin	0.5	0
scalar SemiDecentralized.host[1].wlan[0].radio 	bitrate:min 	54000000
attr interpolationmode  sample-hold
attr title  "tx bitrate, min"
attr unit  bps
scalar SemiDecentralized.host[1].wlan[0].radio 	bitrate:max 	54000000
attr interpolationmode  sample-hold
attr title  "tx bitrate, max"
attr unit  bps
scalar SemiDecentralized.host[1].wlan[0].radio 	bitrate:timeavg 	54000000
attr interpolationmode  sample-hold
attr title  "tx bitrate, timeavg"
attr unit  bps
scalar SemiDecentralized.host[1].udpApp[0] 	"packets sent" 	7
scalar SemiDecentralized.host[1].udpApp[0] 	"packets received" 	0
statistic SemiDecentralized.host[1].udpApp[0] 	rcvdPkLifetime:stats
field count 0
field mean -nan
field stddev -nan
field sum 0
field sqrsum 0
field min -nan
field max -nan
attr interpolationmode  none
attr source  messageAge(rcvdPk)
attr title  "received packet lifetime, stats"
attr unit  s
scalar SemiDecentralized.host[1].udp 	droppedPkBadChecksum:count 	0
attr interpolationmode  none
attr title  "packets dropped (checksum error), count"
scalar SemiDecentralized.host[1].udp 	droppedPkWrongPort:count 	0
attr interpolationmode  none
attr title  "packets dropped (wrong port), count"
scalar SemiDecentralized.host[1].udp 	passedUpPk:count 	0
attr interpolationmode  none
attr title  "packets passed up, count"
scalar SemiDecentralized.host[1].udp 	rcvdPk:count 	0
attr interpolationmode  none
attr source  rcvdPk
attr title  "packets received, count"
scalar SemiDecentralized.host[1].udp 	rcvdPk:sum(packetBytes) 	0
attr interpolationmode  none
attr source  rcvdPk
attr title  "packets received, sum(packetBytes)"
scalar SemiDecentralized.host[1].udp 	sentPk:count 	7
attr interpolationmode  none
attr source  sentPk
attr title  "packets sent, count"
scalar SemiDecentralized.host[1].udp 	sentPk:sum(packetBytes) 	3640
attr interpolationmode  none
attr source  sentPk
attr title  "packets sent, sum(packetBytes)"
statistic SemiDecentralized.host[1].aodv 	NumSentAODVPackets
field count 13
field mean 7
field stddev 3.8944404818493
field sum 91
field sqrsum 819
field min 1
field max 13
statistic SemiDecentralized.host[1].aodv 	NumReceivedAODVPackets
field count 7
field mean 4
field stddev 2.1602468994693
field sum 28
field sqrsum 140
field min 1
field max 7
scalar SemiDecentralized.host[1].aodv 	"Number of LinkBreaks" 	0
scalar SemiDecentralized.host[1].aodv 	RERRSentNow 	0
scalar SemiDecentralized.host[1].rsmgmnt 	RREQSent:count 	7
scalar SemiDecentralized.host[1].rsmgmnt 	RREPSent:count 	7
scalar SemiDecentralized.host[2].wlan[0].mac 	"number of receiveunsigned d packets" 	11
scalar SemiDecentralized.host[2].wlan[0].mac 	"number of collisions" 	15
scalar SemiDecentralized.host[2].wlan[0].mac 	"number of internal collisions" 	0
scalar SemiDecentralized.host[2].wlan[0].mac 	"number of retry for AC 0" 	0
scalar SemiDecentralized.host[2].wlan[0].mac 	"sent and received bits" 	88448
scalar SemiDecentralized.host[2].wlan[0].mac 	"sent packet within AC 0" 	6
scalar SemiDecentralized.host[2].wlan[0].mac 	"sent in TXOP " 	0
scalar SemiDecentralized.host[2].wlan[0].mac 	"sentWithoutRetry AC 0" 	6
scalar SemiDecentralized.host[2].wlan[0].mac 	"numGivenUp AC 0" 	0
scalar SemiDecentralized.host[2].wlan[0].mac 	"numDropped AC 0" 	0
scalar SemiDecentralized.host[2].wlan[0].radio 	lossRate:min 	0
attr interpolationmode  backward-sample-hold
attr title  "packet loss rate, min"
scalar SemiDecentralized.host[2].wlan[0].radio 	lossRate:max 	0.04
attr interpolationmode  backward-sample-hold
attr title  "packet loss rate, max"
scalar SemiDecentralized.host[2].wlan[0].radio 	lossRate:timeavg 	0.00585745845043
attr interpolationmode  backward-sample-hold
attr title  "packet loss rate, timeavg"
statistic SemiDecentralized.host[2].wlan[0].radio 	channelNo:histogram
field count 1
field mean 0
field stddev -nan
field sum 0
field sqrsum 0
field min 0
field max 0
attr interpolationmode  sample-hold
attr title  "channel no, histogram"
bin	-INF	0
bin	-0.5	0
bin	-0.46666666666667	0
bin	-0.43333333333333	0
bin	-0.4	0
bin	-0.36666666666667	0
bin	-0.33333333333333	0
bin	-0.3	0
bin	-0.26666666666667	0
bin	-0.23333333333333	0
bin	-0.2	0
bin	-0.16666666666667	0
bin	-0.13333333333333	0
bin	-0.1	0
bin	-0.066666666666667	0
bin	-0.033333333333333	0
bin	0	1
bin	0.033333333333333	0
bin	0.066666666666667	0
bin	0.1	0
bin	0.13333333333333	0
bin	0.16666666666667	0
bin	0.2	0
bin	0.23333333333333	0
bin	0.26666666666667	0
bin	0.3	0
bin	0.33333333333333	0
bin	0.36666666666667	0
bin	0.4	0
bin	0.43333333333333	0
bin	0.46666666666667	0
bin	0.5	0
scalar SemiDecentralized.host[2].wlan[0].radio 	bitrate:min 	54000000
attr interpolationmode  sample-hold
attr title  "tx bitrate, min"
attr unit  bps
scalar SemiDecentralized.host[2].wlan[0].radio 	bitrate:max 	54000000
attr interpolationmode  sample-hold
attr title  "tx bitrate, max"
attr unit  bps
scalar SemiDecentralized.host[2].wlan[0].radio 	bitrate:timeavg 	54000000
attr interpolationmode  sample-hold
attr title  "tx bitrate, timeavg"
attr unit  bps
statistic SemiDecentralized.host[2].udpApp[0] 	endToEndDelay:histogram
field count 5
field mean 0.004283048483
field stddev 0.00094622505895712
field sum 0.021415242415
field sqrsum 9.5303888987437e-05
field min 0.002716336832
field max 0.005249030675
attr interpolationmode  none
attr source  messageAge(rcvdPk)
attr title  "end-to-end delay, histogram"
attr unit  s
bin	-INF	0
bin	0.0014499899105	0
bin	0.0016188361667	0
bin	0.0017876824229	0
bin	0.0019565286791	0
bin	0.0021253749353	0
bin	0.0022942211915	0
bin	0.0024630674477	0
bin	0.0026319137039	1
bin	0.0028007599601	0
bin	0.0029696062163	0
bin	0.0031384524725	0
bin	0.0033072987287	0
bin	0.0034761449849	0
bin	0.0036449912411	0
bin	0.0038138374973	0
bin	0.0039826837535	0
bin	0.0041515300097	0
bin	0.0043203762659	2
bin	0.0044892225221	0
bin	0.0046580687783	1
bin	0.0048269150345	0
bin	0.0049957612907	0
bin	0.0051646075469	1
bin	0.0053334538031	0
bin	0.0055023000593	0
bin	0.0056711463155	0
bin	0.0058399925717	0
bin	0.0060088388279	0
bin	0.0061776850841	0
bin	0.0063465313403	0
bin	0.0065153775965	0
scalar SemiDecentralized.host[2].udp 	droppedPkBadChecksum:count 	0
attr interpolationmode  none
attr title  "packets dropped (checksum error), count"
scalar SemiDecentralized.host[2].udp 	droppedPkWrongPort:count 	0
attr interpolationmode  none
attr title  "packets dropped (wrong port), count"
scalar SemiDecentralized.host[2].udp 	passedUpPk:count 	5
attr interpolationmode  none
attr title  "packets passed up, count"
scalar SemiDecentralized.host[2].udp 	rcvdPk:count 	5
attr interpolationmode  none
attr source  rcvdPk
attr title  "packets received, count"
scalar SemiDecentralized.host[2].udp 	rcvdPk:sum(packetBytes) 	2600
attr interpolationmode  none
attr source  rcvdPk
attr title  "packets received, sum(packetBytes)"
scalar SemiDecentralized.host[2].udp 	sentPk:count 	0
attr interpolationmode  none
attr source  sentPk
attr title  "packets sent, count"
scalar SemiDecentralized.host[2].udp 	sentPk:sum(packetBytes) 	0
attr interpolationmode  none
attr source  sentPk
attr title  "packets sent, sum(packetBytes)"
statistic SemiDecentralized.host[2].aodv 	NumSentAODVPackets
field count 6
field mean 3.5
field stddev 1.870828693387
field sum 21
field sqrsum 91
field min 1
field max 6
statistic SemiDecentralized.host[2].aodv 	NumReceivedAODVPackets
field count 0
field mean -nan
field stddev -nan
field sum 0
field sqrsum 0
field min -nan
field max -nan
scalar SemiDecentralized.host[2].aodv 	"Number of LinkBreaks" 	0
scalar SemiDecentralized.host[2].aodv 	RERRSentNow 	0
scalar SemiDecentralized.host[2].rsmgmnt 	RREQSent:count 	0
scalar SemiDecentralized.host[2].rsmgmnt 	RREPSent:count 	0
scalar SemiDecentralized.host[3].wlan[0].mac 	"number of receiveunsigned d packets" 	2
scalar SemiDecentralized.host[3].wlan[0].mac 	"number of collisions" 	17
scalar SemiDecentralized.host[3].wlan[0].mac 	"number of internal collisions" 	0
scalar SemiDecentralized.host[3].wlan[0].mac 	"number of retry for AC 0" 	0
scalar SemiDecentralized.host[3].wlan[0].mac 	"sent and received bits" 	101920
scalar SemiDecentralized.host[3].wlan[0].mac 	"sent packet within AC 0" 	9
scalar SemiDecentralized.host[3].wlan[0].mac 	"sent in TXOP " 	0
scalar SemiDecentralized.host[3].wlan[0].mac 	"sentWithoutRetry AC 0" 	9
scalar SemiDecentralized.host[3].wlan[0].mac 	"numGivenUp AC 0" 	0
scalar SemiDecentralized.host[3].wlan[0].mac 	"numDropped AC 0" 	0
scalar SemiDecentralized.host[3].wlan[0].radio 	lossRate:min 	0
attr interpolationmode  backward-sample-hold
attr title  "packet loss rate, min"
scalar SemiDecentralized.host[3].wlan[0].radio 	lossRate:max 	0.06
attr interpolationmode  backward-sample-hold
attr title  "packet loss rate, max"
scalar SemiDecentralized.host[3].wlan[0].radio 	lossRate:timeavg 	0.0081179029355039
attr interpolationmode  backward-sample-hold
attr title  "packet loss rate, timeavg"
statistic SemiDecentralized.host[3].wlan[0].radio 	channelNo:histogram
field count 1
field mean 0
field stddev -nan
field sum 0
field sqrsum 0
field min 0
field max 0
attr interpolationmode  sample-hold
attr title  "channel no, histogram"
bin	-INF	0
bin	-0.5	0
bin	-0.46666666666667	0
bin	-0.43333333333333	0
bin	-0.4	0
bin	-0.36666666666667	0
bin	-0.33333333333333	0
bin	-0.3	0
bin	-0.26666666666667	0
bin	-0.23333333333333	0
bin	-0.2	0
bin	-0.16666666666667	0
bin	-0.13333333333333	0
bin	-0.1	0
bin	-0.066666666666667	0
bin	-0.033333333333333	0
bin	0	1
bin	0.033333333333333	0
bin	0.066666666666667	0
bin	0.1	0
bin	0.13333333333333	0
bin	0.16666666666667	0
bin	0.2	0
bin	0.23333333333333	0
bin	0.26666666666667	0
bin	0.3	0
bin	0.33333333333333	0
bin	0.36666666666667	0
bin	0.4	0
bin	0.43333333333333	0
bin	0.46666666666667	0
bin	0.5	0
scalar SemiDecentralized.host[3].wlan[0].radio 	bitrate:min 	54000000
attr interpolationmode  sample-hold
attr title  "tx bitrate, min"
attr unit  bps
scalar SemiDecentralized.host[3].wlan[0].radio 	bitrate:max 	54000000
attr interpolationmode  sample-hold
attr title  "tx bitrate, max"
attr unit  bps
scalar SemiDecentralized.host[3].wlan[0].radio 	bitrate:timeavg 	54000000
attr interpolationmode  sample-hold
attr title  "tx bitrate, timeavg"
attr unit  bps
scalar SemiDecentralized.host[3].udpApp[0] 	"packets sent" 	7
scalar SemiDecentralized.host[3].udpApp[0] 	"packets received" 	0
statistic SemiDecentralized.host[3].udpApp[0] 	rcvdPkLifetime:stats
field count 0
field mean -nan
field stddev -nan
field sum 0
field sqrsum 0
field min -nan
field max -nan
attr interpolationmode  none
attr source  messageAge(rcvdPk)
attr title  "received packet lifetime, stats"
attr unit  s
scalar SemiDecentralized.host[3].udp 	droppedPkBadChecksum:count 	0
attr interpolationmode  none
attr title  "packets dropped (checksum error), count"
scalar SemiDecentralized.host[3].udp 	droppedPkWrongPort:count 	0
attr interpolationmode  none
attr title  "packets dropped (wrong port), count"
scalar SemiDecentralized.host[3].udp 	passedUpPk:count 	0
attr interpolationmode  none
attr title  "packets passed up, count"
scalar SemiDecentralized.host[3].udp 	rcvdPk:count 	0
attr interpolationmode  none
attr source  rcvdPk
attr title  "packets received, count"
scalar SemiDecentralized.host[3].udp 	rcvdPk:sum(packetBytes) 	0
attr interpolationmode  none
attr source  rcvdPk
attr title  "packets received, sum(packetBytes)"
scalar SemiDecentralized.host[3].udp 	sentPk:count 	7
attr interpolationmode  none
attr source  sentPk
attr title  "packets sent, count"
scalar SemiDecentralized.host[3].udp 	sentPk:sum(packetBytes) 	3640
attr interpolationmode  none
attr source  sentPk
attr title  "packets sent, sum(packetBytes)"
statistic SemiDecentralized.host[3].aodv 	NumSentAODVPackets
field count 9
field mean 5
field stddev 2.7386127875258
field sum 45
field sqrsum 285
field min 1
field max 9
statistic SemiDecentralized.host[3].aodv 	NumReceivedAODVPackets
field count 7
field mean 4
field stddev 2.1602468994693
field sum 28
field sqrsum 140
field min 1
field max 7
scalar SemiDecentralized.host[3].aodv 	"Number of LinkBreaks" 	0
scalar SemiDecentralized.host[3].aodv 	RERRSentNow 	0
scalar SemiDecentralized.host[3].rsmgmnt 	RREQSent:count 	7
scalar SemiDecentralized.host[3].rsmgmnt 	RREPSent:count 	7
scalar SemiDecentralized.host[4].wlan[0].mac 	"number of receiveunsigned d packets" 	9
scalar SemiDecentralized.host[4].wlan[0].mac 	"number of collisions" 	37
scalar SemiDecentralized.host[4].wlan[0].mac 	"number of internal collisions" 	0
scalar SemiDecentralized.host[4].wlan[0].mac 	"number of retry for AC 0" 	0
scalar SemiDecentralized.host[4].wlan[0].mac 	"sent and received bits" 	73984
scalar SemiDecentralized.host[4].wlan[0].mac 	"sent packet within AC 0" 	3
scalar SemiDecentralized.host[4].wlan[0].mac 	"sent in TXOP " 	0
scalar SemiDecentralized.host[4].wlan[0].mac 	"sentWithoutRetry AC 0" 	3
scalar SemiDecentralized.host[4].wlan[0].mac 	"numGivenUp AC 0" 	0
scalar SemiDecentralized.host[4].wlan[0].mac 	"numDropped AC 0" 	0
scalar SemiDecentralized.host[4].wlan[0].radio 	lossRate:min 	0
attr interpolationmode  backward-sample-hold
attr title  "packet loss rate, min"
scalar SemiDecentralized.host[4].wlan[0].radio 	lossRate:max 	0.06
attr interpolationmode  backward-sample-hold
attr title  "packet loss rate, max"
scalar SemiDecentralized.host[4].wlan[0].radio 	lossRate:timeavg 	0.0094426204768726
attr interpolationmode  backward-sample-hold
attr title  "packet loss rate, timeavg"
statistic SemiDecentralized.host[4].wlan[0].radio 	channelNo:histogram
field count 1
field mean 0
field stddev -nan
field sum 0
field sqrsum 0
field min 0
field max 0
attr interpolationmode  sample-hold
attr title  "channel no, histogram"
bin	-INF	0
bin	-0.5	0
bin	-0.46666666666667	0
bin	-0.43333333333333	0
bin	-0.4	0
bin	-0.36666666666667	0
bin	-0.33333333333333	0
bin	-0.3	0
bin	-0.26666666666667	0
bin	-0.23333333333333	0
bin	-0.2	0
bin	-0.16666666666667	0
bin	-0.13333333333333	0
bin	-0.1	0
bin	-0.066666666666667	0
bin	-0.033333333333333	0
bin	0	1
bin	0.033333333333333	0
bin	0.066666666666667	0
bin	0.1	0
bin	0.13333333333333	0
bin	0.16666666666667	0
bin	0.2	0
bin	0.23333333333333	0
bin	0.26666666666667	0
bin	0.3	0
bin	0.33333333333333	0
bin	0.36666666666667	0
bin	0.4	0
bin	0.43333333333333	0
bin	0.46666666666667	0
bin	0.5	0
scalar SemiDecentralized.host[4].wlan[0].radio 	bitrate:min 	54000000
attr interpolationmode  sample-hold
attr title  "tx bitrate, min"
attr unit  bps
scalar SemiDecentralized.host[4].wlan[0].radio 	bitrate:max 	54000000
attr interpolationmode  sample-hold
attr title  "tx bitrate, max"
attr unit  bps
scalar SemiDecentralized.host[4].wlan[0].radio 	bitrate:timeavg 	54000000
attr interpolationmode  sample-hold
attr title  "tx bitrate, timeavg"
attr unit  bps
statistic SemiDecentralized.host[4].udpApp[0] 	endToEndDelay:histogram
field count 6
field mean 0.0044586978201667
field stddev 0.0020216202209334
field sum 0.026752186921
field sqrsum 0.00013971465909779
field min 0.001521062406
field max 0.007417155162
attr interpolationmode  none
attr source  messageAge(rcvdPk)
attr title  "end-to-end delay, histogram"
attr unit  s
bin	-INF	0
bin	-0.001426983972	0
bin	-0.0010339111216	0
bin	-0.0006408382712	0
bin	-0.0002477654208	0
bin	0.0001453074296	0
bin	0.00053838028	0
bin	0.0009314531304	0
bin	0.0013245259808	1
bin	0.0017175988312	0
bin	0.0021106716816	0
bin	0.002503744532	0
bin	0.0028968173824	0
bin	0.0032898902328	1
bin	0.0036829630832	0
bin	0.0040760359336	2
bin	0.004469108784	0
bin	0.0048621816344	0
bin	0.0052552544848	0
bin	0.0056483273352	1
bin	0.0060414001856	0
bin	0.006434473036	0
bin	0.0068275458864	0
bin	0.0072206187368	1
bin	0.0076136915872	0
bin	0.0080067644376	0
bin	0.008399837288	0
bin	0.0087929101384	0
bin	0.0091859829888	0
bin	0.0095790558392	0
bin	0.0099721286896	0
bin	0.01036520154	0
scalar SemiDecentralized.host[4].udp 	droppedPkBadChecksum:count 	0
attr interpolationmode  none
attr title  "packets dropped (checksum error), count"
scalar SemiDecentralized.host[4].udp 	droppedPkWrongPort:count 	0
attr interpolationmode  none
attr title  "packets dropped (wrong port), count"
scalar SemiDecentralized.host[4].udp 	passedUpPk:count 	6
attr interpolationmode  none
attr title  "packets passed up, count"
scalar SemiDecentralized.host[4].udp 	rcvdPk:count 	6
attr interpolationmode  none
attr source  rcvdPk
attr title  "packets received, count"
scalar SemiDecentralized.host[4].udp 	rcvdPk:sum(packetBytes) 	3120
attr interpolationmode  none
attr source  rcvdPk
attr title  "packets received, sum(packetBytes)"
scalar SemiDecentralized.host[4].udp 	sentPk:count 	0
attr interpolationmode  none
attr source  sentPk
attr title  "packets sent, count"
scalar SemiDecentralized.host[4].udp 	sentPk:sum(packetBytes) 	0
attr interpolationmode  none
attr source  sentPk
attr title  "packets sent, sum(packetBytes)"
statistic SemiDecentralized.host[4].aodv 	NumSentAODVPackets
field count 3
field mean 2
field stddev 1
field sum 6
field sqrsum 14
field min 1
field max 3
statistic SemiDecentralized.host[4].aodv 	NumReceivedAODVPackets
field count 0
field mean -nan
field stddev -nan
field sum 0
field sqrsum 0
field min -nan
field max -nan
scalar SemiDecentralized.host[4].aodv 	"Number of LinkBreaks" 	0
scalar SemiDecentralized.host[4].aodv 	RERRSentNow 	0
scalar SemiDecentralized.host[4].rsmgmnt 	RREQSent:count 	0
scalar SemiDecentralized.host[4].rsmgmnt 	RREPSent:count 	0
scalar SemiDecentralized.host[5].wlan[0].mac 	"number of receiveunsigned d packets" 	2
scalar SemiDecentralized.host[5].wlan[0].mac 	"number of collisions" 	13
scalar SemiDecentralized.host[5].wlan[0].mac 	"number of internal collisions" 	0
scalar SemiDecentralized.host[5].wlan[0].mac 	"number of retry for AC 0" 	0
scalar SemiDecentralized.host[5].wlan[0].mac 	"sent and received bits" 	102416
scalar SemiDecentralized.host[5].wlan[0].mac 	"sent packet within AC 0" 	9
scalar SemiDecentralized.host[5].wlan[0].mac 	"sent in TXOP " 	0
scalar SemiDecentralized.host[5].wlan[0].mac 	"sentWithoutRetry AC 0" 	9
scalar SemiDecentralized.host[5].wlan[0].mac 	"numGivenUp AC 0" 	0
scalar SemiDecentralized.host[5].wlan[0].mac 	"numDropped AC 0" 	0
scalar SemiDecentralized.host[5].wlan[0].radio 	lossRate:min 	0
attr interpolationmode  backward-sample-hold
attr title  "packet loss rate, min"
scalar SemiDecentralized.host[5].wlan[0].radio 	lossRate:max 	0.02
attr interpolationmode  backward-sample-hold
attr title  "packet loss rate, max"
scalar SemiDecentralized.host[5].wlan[0].radio 	lossRate:timeavg 	0.0045871475710403
attr interpolationmode  backward-sample-hold
attr title  "packet loss rate, timeavg"
statistic SemiDecentralized.host[5].wlan[0].radio 	channelNo:histogram
field count 1
field mean 0
field stddev -nan
field sum 0
field sqrsum 0
field min 0
field max 0
attr interpolationmode  sample-hold
attr title  "channel no, histogram"
bin	-INF	0
bin	-0.5	0
bin	-0.46666666666667	0
bin	-0.43333333333333	0
bin	-0.4	0
bin	-0.36666666666667	0
bin	-0.33333333333333	0
bin	-0.3	0
bin	-0.26666666666667	0
bin	-0.23333333333333	0
bin	-0.2	0
bin	-0.16666666666667	0
bin	-0.13333333333333	0
bin	-0.1	0
bin	-0.066666666666667	0
bin	-0.033333333333333	0
bin	0	1
bin	0.033333333333333	0
bin	0.066666666666667	0
bin	0.1	0
bin	0.13333333333333	0
bin	0.16666666666667	0
bin	0.2	0
bin	0.23333333333333	0
bin	0.26666666666667	0
bin	0.3	0
bin	0.33333333333333	0
bin	0.36666666666667	0
bin	0.4	0
bin	0.43333333333333	0
bin	0.46666666666667	0
bin	0.5	0
scalar SemiDecentralized.host[5].wlan[0].radio 	bitrate:min 	54000000
attr interpolationmode  sample-hold
attr title  "tx bitrate, min"
attr unit  bps
scalar SemiDecentralized.host[5].wlan[0].radio 	bitrate:max 	54000000
attr interpolationmode  sample-hold
attr title  "tx bitrate, max"
attr unit  bps
scalar SemiDecentralized.host[5].wlan[0].radio 	bitrate:timeavg 	54000000
attr interpolationmode  sample-hold
attr title  "tx bitrate, timeavg"
attr unit  bps
scalar SemiDecentralized.host[5].udpApp[0] 	"packets sent" 	7
scalar SemiDecentralized.host[5].udpApp[0] 	"packets received" 	0
statistic SemiDecentralized.host[5].udpApp[0] 	rcvdPkLifetime:stats
field count 0
field mean -nan
field stddev -nan
field sum 0
field sqrsum 0
field min -nan
field max -nan
attr interpolationmode  none
attr source  messageAge(rcvdPk)
attr title  "received packet lifetime, stats"
attr unit  s
scalar SemiDecentralized.host[5].udp 	droppedPkBadChecksum:count 	0
attr interpolationmode  none
attr title  "packets dropped (checksum error), count"
scalar SemiDecentralized.host[5].udp 	droppedPkWrongPort:count 	0
attr interpolationmode  none
attr title  "packets dropped (wrong port), count"
scalar SemiDecentralized.host[5].udp 	passedUpPk:count 	0
attr interpolationmode  none
attr title  "packets passed up, count"
scalar SemiDecentralized.host[5].udp 	rcvdPk:count 	0
attr interpolationmode  none
attr source  rcvdPk
attr title  "packets received, count"
scalar SemiDecentralized.host[5].udp 	rcvdPk:sum(packetBytes) 	0
attr interpolationmode  none
attr source  rcvdPk
attr title  "packets received, sum(packetBytes)"
scalar SemiDecentralized.host[5].udp 	sentPk:count 	7
attr interpolationmode  none
attr source  sentPk
attr title  "packets sent, count"
scalar SemiDecentralized.host[5].udp 	sentPk:sum(packetBytes) 	3640
attr interpolationmode  none
attr source  sentPk
attr title  "packets sent, sum(packetBytes)"
statistic SemiDecentralized.host[5].aodv 	NumSentAODVPackets
field count 9
field mean 5
field stddev 2.7386127875258
field sum 45
field sqrsum 285
field min 1
field max 9
statistic SemiDecentralized.host[5].aodv 	NumReceivedAODVPackets
field count 7
field mean 4
field stddev 2.1602468994693
field sum 28
field sqrsum 140
field min 1
field max 7
scalar SemiDecentralized.host[5].aodv 	"Number of LinkBreaks" 	0
scalar SemiDecentralized.host[5].aodv 	RERRSentNow 	0
scalar SemiDecentralized.host[5].rsmgmnt 	RREQSent:count 	7
scalar SemiDecentralized.host[5].rsmgmnt 	RREPSent:count 	7
scalar SemiDecentralized.host[6].wlan[0].mac 	"number of receiveunsigned d packets" 	11
scalar SemiDecentralized.host[6].wlan[0].mac 	"number of collisions" 	12
scalar SemiDecentralized.host[6].wlan[0].mac 	"number of internal collisions" 	0
scalar SemiDecentralized.host[6].wlan[0].mac 	"number of retry for AC 0" 	0
scalar SemiDecentralized.host[6].wlan[0].mac 	"sent and received bits" 	79136
scalar SemiDecentralized.host[6].wlan[0].mac 	"sent packet within AC 0" 	4
scalar SemiDecentralized.host[6].wlan[0].mac 	"sent in TXOP " 	0
scalar SemiDecentralized.host[6].wlan[0].mac 	"sentWithoutRetry AC 0" 	4
scalar SemiDecentralized.host[6].wlan[0].mac 	"numGivenUp AC 0" 	0
scalar SemiDecentralized.host[6].wlan[0].mac 	"numDropped AC 0" 	0
scalar SemiDecentralized.host[6].wlan[0].radio 	lossRate:min 	0
attr interpolationmode  backward-sample-hold
attr title  "packet loss rate, min"
scalar SemiDecentralized.host[6].wlan[0].radio 	lossRate:max 	0.04
attr interpolationmode  backward-sample-hold
attr title  "packet loss rate, max"
scalar SemiDecentralized.host[6].wlan[0].radio 	lossRate:timeavg 	0.0035948440831242
attr interpolationmode  backward-sample-hold
attr title  "packet loss rate, timeavg"
statistic SemiDecentralized.host[6].wlan[0].radio 	channelNo:histogram
field count 1
field mean 0
field stddev -nan
field sum 0
field sqrsum 0
field min 0
field max 0
attr interpolationmode  sample-hold
attr title  "channel no, histogram"
bin	-INF	0
bin	-0.5	0
bin	-0.46666666666667	0
bin	-0.43333333333333	0
bin	-0.4	0
bin	-0.36666666666667	0
bin	-0.33333333333333	0
bin	-0.3	0
bin	-0.26666666666667	0
bin	-0.23333333333333	0
bin	-0.2	0
bin	-0.16666666666667	0
bin	-0.13333333333333	0
bin	-0.1	0
bin	-0.066666666666667	0
bin	-0.033333333333333	0
bin	0	1
bin	0.033333333333333	0
bin	0.066666666666667	0
bin	0.1	0
bin	0.13333333333333	0
bin	0.16666666666667	0
bin	0.2	0
bin	0.23333333333333	0
bin	0.26666666666667	0
bin	0.3	0
bin	0.33333333333333	0
bin	0.36666666666667	0
bin	0.4	0
bin	0.43333333333333	0
bin	0.46666666666667	0
bin	0.5	0
scalar SemiDecentralized.host[6].wlan[0].radio 	bitrate:min 	54000000
attr interpolationmode  sample-hold
attr title  "tx bitrate, min"
attr unit  bps
scalar SemiDecentralized.host[6].wlan[0].radio 	bitrate:max 	54000000
attr interpolationmode  sample-hold
attr title  "tx bitrate, max"
attr unit  bps
scalar SemiDecentralized.host[6].wlan[0].radio 	bitrate:timeavg 	54000000
attr interpolationmode  sample-hold
attr title  "tx bitrate, timeavg"
attr unit  bps
statistic SemiDecentralized.host[6].udpApp[0] 	endToEndDelay:histogram
field count 7
field mean 0.0043610040867143
field stddev 0.0012518609774057
field sum 0.030527028607
field sqrsum 0.00014253143195088
field min 0.002574754915
field max 0.005810074889
attr interpolationmode  none
attr source  messageAge(rcvdPk)
attr title  "end-to-end delay, histogram"
attr unit  s
bin	-INF	0
bin	0.000957094928	0
bin	0.0011727829262667	0
bin	0.0013884709245333	0
bin	0.0016041589228	0
bin	0.0018198469210667	0
bin	0.0020355349193333	0
bin	0.0022512229176	0
bin	0.0024669109158667	1
bin	0.0026825989141333	0
bin	0.0028982869124	0
bin	0.0031139749106667	0
bin	0.0033296629089333	2
bin	0.0035453509072	0
bin	0.0037610389054667	0
bin	0.0039767269037333	0
bin	0.004192414902	0
bin	0.0044081029002667	1
bin	0.0046237908985333	0
bin	0.0048394788968	0
bin	0.0050551668950667	0
bin	0.0052708548933333	1
bin	0.0054865428916	1
bin	0.0057022308898667	1
bin	0.0059179188881333	0
bin	0.0061336068864	0
bin	0.0063492948846667	0
bin	0.0065649828829333	0
bin	0.0067806708812	0
bin	0.0069963588794667	0
bin	0.0072120468777333	0
bin	0.007427734876	0
scalar SemiDecentralized.host[6].udp 	droppedPkBadChecksum:count 	0
attr interpolationmode  none
attr title  "packets dropped (checksum error), count"
scalar SemiDecentralized.host[6].udp 	droppedPkWrongPort:count 	0
attr interpolationmode  none
attr title  "packets dropped (wrong port), count"
scalar SemiDecentralized.host[6].udp 	passedUpPk:count 	7
attr interpolationmode  none
attr title  "packets passed up, count"
scalar SemiDecentralized.host[6].udp 	rcvdPk:count 	7
attr interpolationmode  none
attr source  rcvdPk
attr title  "packets received, count"
scalar SemiDecentralized.host[6].udp 	rcvdPk:sum(packetBytes) 	3640
attr interpolationmode  none
attr source  rcvdPk
attr title  "packets received, sum(packetBytes)"
scalar SemiDecentralized.host[6].udp 	sentPk:count 	0
attr interpolationmode  none
attr source  sentPk
attr title  "packets sent, count"
scalar SemiDecentralized.host[6].udp 	sentPk:sum(packetBytes) 	0
attr interpolationmode  none
attr source  sentPk
attr title  "packets sent, sum(packetBytes)"
statistic SemiDecentralized.host[6].aodv 	NumSentAODVPackets
field count 4
field mean 2.5
field stddev 1.2909944487358
field sum 10
field sqrsum 30
field min 1
field max 4
statistic SemiDecentralized.host[6].aodv 	NumReceivedAODVPackets
field count 0
field mean -nan
field stddev -nan
field sum 0
field sqrsum 0
field min -nan
field max -nan
scalar SemiDecentralized.host[6].aodv 	"Number of LinkBreaks" 	0
scalar SemiDecentralized.host[6].aodv 	RERRSentNow 	0
scalar SemiDecentralized.host[6].rsmgmnt 	RREQSent:count 	0
scalar SemiDecentralized.host[6].rsmgmnt 	RREPSent:count 	0
scalar SemiDecentralized.host[7].wlan[0].mac 	"number of receiveunsigned d packets" 	6
scalar SemiDecentralized.host[7].wlan[0].mac 	"number of collisions" 	21
scalar SemiDecentralized.host[7].wlan[0].mac 	"number of internal collisions" 	0
scalar SemiDecentralized.host[7].wlan[0].mac 	"number of retry for AC 0" 	0
scalar SemiDecentralized.host[7].wlan[0].mac 	"sent and received bits" 	111728
scalar SemiDecentralized.host[7].wlan[0].mac 	"sent packet within AC 0" 	11
scalar SemiDecentralized.host[7].wlan[0].mac 	"sent in TXOP " 	0
scalar SemiDecentralized.host[7].wlan[0].mac 	"sentWithoutRetry AC 0" 	11
scalar SemiDecentralized.host[7].wlan[0].mac 	"numGivenUp AC 0" 	0
scalar SemiDecentralized.host[7].wlan[0].mac 	"numDropped AC 0" 	0
scalar SemiDecentralized.host[7].wlan[0].radio 	lossRate:min 	0
attr interpolationmode  backward-sample-hold
attr title  "packet loss rate, min"
scalar SemiDecentralized.host[7].wlan[0].radio 	lossRate:max 	0.04
attr interpolationmode  backward-sample-hold
attr title  "packet loss rate, max"
scalar SemiDecentralized.host[7].wlan[0].radio 	lossRate:timeavg 	0.0072548931195966
attr interpolationmode  backward-sample-hold
attr title  "packet loss rate, timeavg"
statistic SemiDecentralized.host[7].wlan[0].radio 	channelNo:histogram
field count 1
field mean 0
field stddev -nan
field sum 0
field sqrsum 0
field min 0
field max 0
attr interpolationmode  sample-hold
attr title  "channel no, histogram"
bin	-INF	0
bin	-0.5	0
bin	-0.46666666666667	0
bin	-0.43333333333333	0
bin	-0.4	0
bin	-0.36666666666667	0
bin	-0.33333333333333	0
bin	-0.3	0
bin	-0.26666666666667	0
bin	-0.23333333333333	0
bin	-0.2	0
bin	-0.16666666666667	0
bin	-0.13333333333333	0
bin	-0.1	0
bin	-0.066666666666667	0
bin	-0.033333333333333	0
bin	0	1
bin	0.033333333333333	0
bin	0.066666666666667	0
bin	0.1	0
bin	0.13333333333333	0
bin	0.16666666666667	0
bin	0.2	0
bin	0.23333333333333	0
bin	0.26666666666667	0
bin	0.3	0
bin	0.33333333333333	0
bin	0.36666666666667	0
bin	0.4	0
bin	0.43333333333333	0
bin	0.46666666666667	0
bin	0.5	0
scalar SemiDecentralized.host[7].wlan[0].radio 	bitrate:min 	54000000
attr interpolationmode  sample-hold
attr title  "tx bitrate, min"
attr unit  bps
scalar SemiDecentralized.host[7].wlan[0].radio 	bitrate:max 	54000000
attr interpolationmode  sample-hold
attr title  "tx bitrate, max"
attr unit  bps
scalar SemiDecentralized.host[7].wlan[0].radio 	bitrate:timeavg 	54000000
attr interpolationmode  sample-hold
attr title  "tx bitrate, timeavg"
attr unit  bps
scalar SemiDecentralized.host[7].udpApp[0] 	"packets sent" 	7
scalar SemiDecentralized.host[7].udpApp[0] 	"packets received" 	0
statistic SemiDecentralized.host[7].udpApp[0] 	rcvdPkLifetime:stats
field count 0
field mean -nan
field stddev -nan
field sum 0
field sqrsum 0
field min -nan
field max -nan
attr interpolationmode  none
attr source  messageAge(rcvdPk)
attr title  "received packet lifetime, stats"
attr unit  s
scalar SemiDecentralized.host[7].udp 	droppedPkBadChecksum:count 	0
attr interpolationmode  none
attr title  "packets dropped (checksum error), count"
scalar SemiDecentralized.host[7].udp 	droppedPkWrongPort:count 	0
attr interpolationmode  none
attr title  "packets dropped (wrong port), count"
scalar SemiDecentralized.host[7].udp 	passedUpPk:count 	0
attr interpolationmode  none
attr title  "packets passed up, count"
scalar SemiDecentralized.host[7].udp 	rcvdPk:count 	0
attr interpolationmode  none
attr source  rcvdPk
attr title  "packets received, count"
scalar SemiDecentralized.host[7].udp 	rcvdPk:sum(packetBytes) 	0
attr interpolationmode  none
attr source  rcvdPk
attr title  "packets received, sum(packetBytes)"
scalar SemiDecentralized.host[7].udp 	sentPk:count 	7
attr interpolationmode  none
attr source  sentPk
attr title  "packets sent, count"
scalar SemiDecentralized.host[7].udp 	sentPk:sum(packetBytes) 	3640
attr interpolationmode  none
attr source  sentPk
attr title  "packets sent, sum(packetBytes)"
statistic SemiDecentralized.host[7].aodv 	NumSentAODVPackets
field count 13
field mean 7
field stddev 3.8944404818493
field sum 91
field sqrsum 819
field min 1
field max 13
statistic SemiDecentralized.host[7].aodv 	NumReceivedAODVPackets
field count 7
field mean 4
field stddev 2.1602468994693
field sum 28
field sqrsum 140
field min 1
field max 7
scalar SemiDecentralized.host[7].aodv 	"Number of LinkBreaks" 	0
scalar SemiDecentralized.host[7].aodv 	RERRSentNow 	0
scalar SemiDecentralized.host[7].rsmgmnt 	RREQSent:count 	7
scalar SemiDecentralized.host[7].rsmgmnt 	RREPSent:count 	7
scalar SemiDecentralized.host[8].wlan[0].mac 	"number of receiveunsigned d packets" 	9
scalar SemiDecentralized.host[8].wlan[0].mac 	"number of collisions" 	11
scalar SemiDecentralized.host[8].wlan[0].mac 	"number of internal collisions" 	0
scalar SemiDecentralized.host[8].wlan[0].mac 	"number of retry for AC 0" 	0
scalar SemiDecentralized.host[8].wlan[0].mac 	"sent and received bits" 	64672
scalar SemiDecentralized.host[8].wlan[0].mac 	"sent packet within AC 0" 	1
scalar SemiDecentralized.host[8].wlan[0].mac 	"sent in TXOP " 	0
scalar SemiDecentralized.host[8].wlan[0].mac 	"sentWithoutRetry AC 0" 	1
scalar SemiDecentralized.host[8].wlan[0].mac 	"numGivenUp AC 0" 	0
scalar SemiDecentralized.host[8].wlan[0].mac 	"numDropped AC 0" 	0
scalar SemiDecentralized.host[8].wlan[0].radio 	lossRate:min 	0
attr interpolationmode  backward-sample-hold
attr title  "packet loss rate, min"
scalar SemiDecentralized.host[8].wlan[0].radio 	lossRate:max 	0.04
attr interpolationmode  backward-sample-hold
attr title  "packet loss rate, max"
scalar SemiDecentralized.host[8].wlan[0].radio 	lossRate:timeavg 	0.0045207653637575
attr interpolationmode  backward-sample-hold
attr title  "packet loss rate, timeavg"
statistic SemiDecentralized.host[8].wlan[0].radio 	channelNo:histogram
field count 1
field mean 0
field stddev -nan
field sum 0
field sqrsum 0
field min 0
field max 0
attr interpolationmode  sample-hold
attr title  "channel no, histogram"
bin	-INF	0
bin	-0.5	0
bin	-0.46666666666667	0
bin	-0.43333333333333	0
bin	-0.4	0
bin	-0.36666666666667	0
bin	-0.33333333333333	0
bin	-0.3	0
bin	-0.26666666666667	0
bin	-0.23333333333333	0
bin	-0.2	0
bin	-0.16666666666667	0
bin	-0.13333333333333	0
bin	-0.1	0
bin	-0.066666666666667	0
bin	-0.033333333333333	0
bin	0	1
bin	0.033333333333333	0
bin	0.066666666666667	0
bin	0.1	0
bin	0.13333333333333	0
bin	0.16666666666667	0
bin	0.2	0
bin	0.23333333333333	0
bin	0.26666666666667	0
bin	0.3	0
bin	0.33333333333333	0
bin	0.36666666666667	0
bin	0.4	0
bin	0.43333333333333	0
bin	0.46666666666667	0
bin	0.5	0
scalar SemiDecentralized.host[8].wlan[0].radio 	bitrate:min 	54000000
attr interpolationmode  sample-hold
attr title  "tx bitrate, min"
attr unit  bps
scalar SemiDecentralized.host[8].wlan[0].radio 	bitrate:max 	54000000
attr interpolationmode  sample-hold
attr title  "tx bitrate, max"
attr unit  bps
scalar SemiDecentralized.host[8].wlan[0].radio 	bitrate:timeavg 	54000000
attr interpolationmode  sample-hold
attr title  "tx bitrate, timeavg"
attr unit  bps
statistic SemiDecentralized.host[8].udpApp[0] 	endToEndDelay:histogram
field count 7
field mean 0.0028693164114286
field stddev 0.0013601174198511
field sum 0.02008521488
field sqrsum 6.8730353056948e-05
field min 0.001102616404
field max 0.004773663127
attr interpolationmode  none
attr source  messageAge(rcvdPk)
attr title  "end-to-end delay, histogram"
attr unit  s
bin	-INF	0
bin	-0.0007329069575	0
bin	-0.0004881705093	0
bin	-0.0002434340611	0
bin	1.3023871e-06	0
bin	0.0002460388353	0
bin	0.0004907752835	0
bin	0.0007355117317	0
bin	0.0009802481799	1
bin	0.0012249846281	1
bin	0.0014697210763	0
bin	0.0017144575245	0
bin	0.0019591939727	0
bin	0.0022039304209	0
bin	0.0024486668691	1
bin	0.0026934033173	1
bin	0.0029381397655	0
bin	0.0031828762137	1
bin	0.0034276126619	0
bin	0.0036723491101	0
bin	0.0039170855583	0
bin	0.0041618220065	1
bin	0.0044065584547	0
bin	0.0046512949029	1
bin	0.0048960313511	0
bin	0.0051407677993	0
bin	0.0053855042475	0
bin	0.0056302406957	0
bin	0.0058749771439	0
bin	0.0061197135921	0
bin	0.0063644500403	0
bin	0.0066091864885	0
scalar SemiDecentralized.host[8].udp 	droppedPkBadChecksum:count 	0
attr interpolationmode  none
attr title  "packets dropped (checksum error), count"
scalar SemiDecentralized.host[8].udp 	droppedPkWrongPort:count 	0
attr interpolationmode  none
attr title  "packets dropped (wrong port), count"
scalar SemiDecentralized.host[8].udp 	passedUpPk:count 	7
attr interpolationmode  none
attr title  "packets passed up, count"
scalar SemiDecentralized.host[8].udp 	rcvdPk:count 	7
attr interpolationmode  none
attr source  rcvdPk
attr title  "packets received, count"
scalar SemiDecentralized.host[8].udp 	rcvdPk:sum(packetBytes) 	3640
attr interpolationmode  none
attr source  rcvdPk
attr title  "packets received, sum(packetBytes)"
scalar SemiDecentralized.host[8].udp 	sentPk:count 	0
attr interpolationmode  none
attr source  sentPk
attr title  "packets sent, count"
scalar SemiDecentralized.host[8].udp 	sentPk:sum(packetBytes) 	0
attr interpolationmode  none
attr source  sentPk
attr title  "packets sent, sum(packetBytes)"
statistic SemiDecentralized.host[8].aodv 	NumSentAODVPackets
field count 2
field mean 1.5
field stddev 0.70710678118655
field sum 3
field sqrsum 5
field min 1
field max 2
statistic SemiDecentralized.host[8].aodv 	NumReceivedAODVPackets
field count 0
field mean -nan
field stddev -nan
field sum 0
field sqrsum 0
field min -nan
field max -nan
scalar SemiDecentralized.host[8].aodv 	"Number of LinkBreaks" 	0
scalar SemiDecentralized.host[8].aodv 	RERRSentNow 	0
scalar SemiDecentralized.host[8].rsmgmnt 	RREQSent:count 	0
scalar SemiDecentralized.host[8].rsmgmnt 	RREPSent:count 	0
scalar SemiDecentralized.host[9].wlan[0].mac 	"number of receiveunsigned d packets" 	7
scalar SemiDecentralized.host[9].wlan[0].mac 	"number of collisions" 	17
scalar SemiDecentralized.host[9].wlan[0].mac 	"number of internal collisions" 	0
scalar SemiDecentralized.host[9].wlan[0].mac 	"number of retry for AC 0" 	0
scalar SemiDecentralized.host[9].wlan[0].mac 	"sent and received bits" 	125200
scalar SemiDecentralized.host[9].wlan[0].mac 	"sent packet within AC 0" 	14
scalar SemiDecentralized.host[9].wlan[0].mac 	"sent in TXOP " 	0
scalar SemiDecentralized.host[9].wlan[0].mac 	"sentWithoutRetry AC 0" 	14
scalar SemiDecentralized.host[9].wlan[0].mac 	"numGivenUp AC 0" 	0
scalar SemiDecentralized.host[9].wlan[0].mac 	"numDropped AC 0" 	0
scalar SemiDecentralized.host[9].wlan[0].radio 	lossRate:min 	0
attr interpolationmode  backward-sample-hold
attr title  "packet loss rate, min"
scalar SemiDecentralized.host[9].wlan[0].radio 	lossRate:max 	0.06
attr interpolationmode  backward-sample-hold
attr title  "packet loss rate, max"
scalar SemiDecentralized.host[9].wlan[0].radio 	lossRate:timeavg 	0.0059793456557481
attr interpolationmode  backward-sample-hold
attr title  "packet loss rate, timeavg"
statistic SemiDecentralized.host[9].wlan[0].radio 	channelNo:histogram
field count 1
field mean 0
field stddev -nan
field sum 0
field sqrsum 0
field min 0
field max 0
attr interpolationmode  sample-hold
attr title  "channel no, histogram"
bin	-INF	0
bin	-0.5	0
bin	-0.46666666666667	0
bin	-0.43333333333333	0
bin	-0.4	0
bin	-0.36666666666667	0
bin	-0.33333333333333	0
bin	-0.3	0
bin	-0.26666666666667	0
bin	-0.23333333333333	0
bin	-0.2	0
bin	-0.16666666666667	0
bin	-0.13333333333333	0
bin	-0.1	0
bin	-0.066666666666667	0
bin	-0.033333333333333	0
bin	0	1
bin	0.033333333333333	0
bin	0.066666666666667	0
bin	0.1	0
bin	0.13333333333333	0
bin	0.16666666666667	0
bin	0.2	0
bin	0.23333333333333	0
bin	0.26666666666667	0
bin	0.3	0
bin	0.33333333333333	0
bin	0.36666666666667	0
bin	0.4	0
bin	0.43333333333333	0
bin	0.46666666666667	0
bin	0.5	0
scalar SemiDecentralized.host[9].wlan[0].radio 	bitrate:min 	54000000
attr interpolationmode  sample-hold
attr title  "tx bitrate, min"
attr unit  bps
scalar SemiDecentralized.host[9].wlan[0].radio 	bitrate:max 	54000000
attr interpolationmode  sample-hold
attr title  "tx bitrate, max"
attr unit  bps
scalar SemiDecentralized.host[9].wlan[0].radio 	bitrate:timeavg 	54000000
attr interpolationmode  sample-hold
attr title  "tx bitrate, timeavg"
attr unit  bps
scalar SemiDecentralized.host[9].udpApp[0] 	"packets sent" 	7
scalar SemiDecentralized.host[9].udpApp[0] 	"packets received" 	0
statistic SemiDecentralized.host[9].udpApp[0] 	rcvdPkLifetime:stats
field count 0
field mean -nan
field stddev -nan
field sum 0
field sqrsum 0
field min -nan
field max -nan
attr interpolationmode  none
attr source  messageAge(rcvdPk)
attr title  "received packet lifetime, stats"
attr unit  s
scalar SemiDecentralized.host[9].udp 	droppedPkBadChecksum:count 	0
attr interpolationmode  none
attr title  "packets dropped (checksum error), count"
scalar SemiDecentralized.host[9].udp 	droppedPkWrongPort:count 	0
attr interpolationmode  none
attr title  "packets dropped (wrong port), count"
scalar SemiDecentralized.host[9].udp 	passedUpPk:count 	0
attr interpolationmode  none
attr title  "packets passed up, count"
scalar SemiDecentralized.host[9].udp 	rcvdPk:count 	0
attr interpolationmode  none
attr source  rcvdPk
attr title  "packets received, count"
scalar SemiDecentralized.host[9].udp 	rcvdPk:sum(packetBytes) 	0
attr interpolationmode  none
attr source  rcvdPk
attr title  "packets received, sum(packetBytes)"
scalar SemiDecentralized.host[9].udp 	sentPk:count 	7
attr interpolationmode  none
attr source  sentPk
attr title  "packets sent, count"
scalar SemiDecentralized.host[9].udp 	sentPk:sum(packetBytes) 	3640
attr interpolationmode  none
attr source  sentPk
attr title  "packets sent, sum(packetBytes)"
statistic SemiDecentralized.host[9].aodv 	NumSentAODVPackets
field count 14
field mean 7.5
field stddev 4.1833001326704
field sum 105
field sqrsum 1015
field min 1
field max 14
statistic SemiDecentralized.host[9].aodv 	NumReceivedAODVPackets
field count 7
field mean 4
field stddev 2.1602468994693
field sum 28
field sqrsum 140
field min 1
field max 7
scalar SemiDecentralized.host[9].aodv 	"Number of LinkBreaks" 	0
scalar SemiDecentralized.host[9].aodv 	RERRSentNow 	0
scalar SemiDecentralized.host[9].rsmgmnt 	RREQSent:count 	7
scalar SemiDecentralized.host[9].rsmgmnt 	RREPSent:count 	7
scalar SemiDecentralized.host[10].wlan[0].mac 	"number of receiveunsigned d packets" 	7
scalar SemiDecentralized.host[10].wlan[0].mac 	"number of collisions" 	9
scalar SemiDecentralized.host[10].wlan[0].mac 	"number of internal collisions" 	0
scalar SemiDecentralized.host[10].wlan[0].mac 	"number of retry for AC 0" 	0
scalar SemiDecentralized.host[10].wlan[0].mac 	"sent and received bits" 	72000
scalar SemiDecentralized.host[10].wlan[0].mac 	"sent packet within AC 0" 	2
scalar SemiDecentralized.host[10].wlan[0].mac 	"sent in TXOP " 	0
scalar SemiDecentralized.host[10].wlan[0].mac 	"sentWithoutRetry AC 0" 	2
scalar SemiDecentralized.host[10].wlan[0].mac 	"numGivenUp AC 0" 	0
scalar SemiDecentralized.host[10].wlan[0].mac 	"numDropped AC 0" 	0
scalar SemiDecentralized.host[10].wlan[0].radio 	lossRate:min 	0
attr interpolationmode  backward-sample-hold
attr title  "packet loss rate, min"
scalar SemiDecentralized.host[10].wlan[0].radio 	lossRate:max 	0.04
attr interpolationmode  backward-sample-hold
attr title  "packet loss rate, max"
scalar SemiDecentralized.host[10].wlan[0].radio 	lossRate:timeavg 	0.0074640467354429
attr interpolationmode  backward-sample-hold
attr title  "packet loss rate, timeavg"
statistic SemiDecentralized.host[10].wlan[0].radio 	channelNo:histogram
field count 1
field mean 0
field stddev -nan
field sum 0
field sqrsum 0
field min 0
field max 0
attr interpolationmode  sample-hold
attr title  "channel no, histogram"
bin	-INF	0
bin	-0.5	0
bin	-0.46666666666667	0
bin	-0.43333333333333	0
bin	-0.4	0
bin	-0.36666666666667	0
bin	-0.33333333333333	0
bin	-0.3	0
bin	-0.26666666666667	0
bin	-0.23333333333333	0
bin	-0.2	0
bin	-0.16666666666667	0
bin	-0.13333333333333	0
bin	-0.1	0
bin	-0.066666666666667	0
bin	-0.033333333333333	0
bin	0	1
bin	0.033333333333333	0
bin	0.066666666666667	0
bin	0.1	0
bin	0.13333333333333	0
bin	0.16666666666667	0
bin	0.2	0
bin	0.23333333333333	0
bin	0.26666666666667	0
bin	0.3	0
bin	0.33333333333333	0
bin	0.36666666666667	0
bin	0.4	0
bin	0.43333333333333	0
bin	0.46666666666667	0
bin	0.5	0
scalar SemiDecentralized.host[10].wlan[0].radio 	bitrate:min 	54000000
attr interpolationmode  sample-hold
attr title  "tx bitrate, min"
attr unit  bps
scalar SemiDecentralized.host[10].wlan[0].radio 	bitrate:max 	54000000
attr interpolationmode  sample-hold
attr title  "tx bitrate, max"
attr unit  bps
scalar SemiDecentralized.host[10].wlan[0].radio 	bitrate:timeavg 	54000000
attr interpolationmode  sample-hold
attr title  "tx bitrate, timeavg"
attr unit  bps
statistic SemiDecentralized.host[10].udpApp[0] 	endToEndDelay:histogram
field count 4
field mean 0.00361142141075
field stddev 0.0016391587635179
field sum 0.014445685643
field sqrsum 6.0229982780147e-05
field min 0.002134895725
field max 0.005499905945
attr interpolationmode  none
attr source  messageAge(rcvdPk)
attr title  "end-to-end delay, histogram"
attr unit  s
bin	-INF	0
bin	0.000452390615	0
bin	0.00067672462966667	0
bin	0.00090105864433333	0
bin	0.001125392659	0
bin	0.0013497266736667	0
bin	0.0015740606883333	0
bin	0.001798394703	0
bin	0.0020227287176667	1
bin	0.0022470627323333	1
bin	0.002471396747	0
bin	0.0026957307616667	0
bin	0.0029200647763333	0
bin	0.003144398791	0
bin	0.0033687328056667	0
bin	0.0035930668203333	0
bin	0.003817400835	0
bin	0.0040417348496667	0
bin	0.0042660688643333	1
bin	0.004490402879	0
bin	0.0047147368936667	0
bin	0.0049390709083333	0
bin	0.005163404923	0
bin	0.0053877389376667	1
bin	0.0056120729523333	0
bin	0.005836406967	0
bin	0.0060607409816667	0
bin	0.0062850749963333	0
bin	0.006509409011	0
bin	0.0067337430256667	0
bin	0.0069580770403333	0
bin	0.007182411055	0
scalar SemiDecentralized.host[10].udp 	droppedPkBadChecksum:count 	0
attr interpolationmode  none
attr title  "packets dropped (checksum error), count"
scalar SemiDecentralized.host[10].udp 	droppedPkWrongPort:count 	0
attr interpolationmode  none
attr title  "packets dropped (wrong port), count"
scalar SemiDecentralized.host[10].udp 	passedUpPk:count 	4
attr interpolationmode  none
attr title  "packets passed up, count"
scalar SemiDecentralized.host[10].udp 	rcvdPk:count 	4
attr interpolationmode  none
attr source  rcvdPk
attr title  "packets received, count"
scalar SemiDecentralized.host[10].udp 	rcvdPk:sum(packetBytes) 	2080
attr interpolationmode  none
attr source  rcvdPk
attr title  "packets received, sum(packetBytes)"
scalar SemiDecentralized.host[10].udp 	sentPk:count 	0
attr interpolationmode  none
attr source  sentPk
attr title  "packets sent, count"
scalar SemiDecentralized.host[10].udp 	sentPk:sum(packetBytes) 	0
attr interpolationmode  none
attr source  sentPk
attr title  "packets sent, sum(packetBytes)"
statistic SemiDecentralized.host[10].aodv 	NumSentAODVPackets
field count 3
field mean 2
field stddev 1
field sum 6
field sqrsum 14
field min 1
field max 3
statistic SemiDecentralized.host[10].aodv 	NumReceivedAODVPackets
field count 1
field mean 1
field stddev -nan
field sum 1
field sqrsum 1
field min 1
field max 1
scalar SemiDecentralized.host[10].aodv 	"Number of LinkBreaks" 	0
scalar SemiDecentralized.host[10].aodv 	RERRSentNow 	1
scalar SemiDecentralized.host[10].rsmgmnt 	RREQSent:count 	1
scalar SemiDecentralized.host[10].rsmgmnt 	RREPSent:count 	1
scalar SemiDecentralized.host[11].wlan[0].mac 	"number of receiveunsigned d packets" 	10
scalar SemiDecentralized.host[11].wlan[0].mac 	"number of collisions" 	36
scalar SemiDecentralized.host[11].wlan[0].mac 	"number of internal collisions" 	0
scalar SemiDecentralized.host[11].wlan[0].mac 	"number of retry for AC 0" 	0
scalar SemiDecentralized.host[11].wlan[0].mac 	"sent and received bits" 	135008
scalar SemiDecentralized.host[11].wlan[0].mac 	"sent packet within AC 0" 	16
scalar SemiDecentralized.host[11].wlan[0].mac 	"sent in TXOP " 	0
scalar SemiDecentralized.host[11].wlan[0].mac 	"sentWithoutRetry AC 0" 	16
scalar SemiDecentralized.host[11].wlan[0].mac 	"numGivenUp AC 0" 	0
scalar SemiDecentralized.host[11].wlan[0].mac 	"numDropped AC 0" 	0
scalar SemiDecentralized.host[11].wlan[0].radio 	lossRate:min 	0
attr interpolationmode  backward-sample-hold
attr title  "packet loss rate, min"
scalar SemiDecentralized.host[11].wlan[0].radio 	lossRate:max 	0.04
attr interpolationmode  backward-sample-hold
attr title  "packet loss rate, max"
scalar SemiDecentralized.host[11].wlan[0].radio 	lossRate:timeavg 	0.010161522538179
attr interpolationmode  backward-sample-hold
attr title  "packet loss rate, timeavg"
statistic SemiDecentralized.host[11].wlan[0].radio 	channelNo:histogram
field count 1
field mean 0
field stddev -nan
field sum 0
field sqrsum 0
field min 0
field max 0
attr interpolationmode  sample-hold
attr title  "channel no, histogram"
bin	-INF	0
bin	-0.5	0
bin	-0.46666666666667	0
bin	-0.43333333333333	0
bin	-0.4	0
bin	-0.36666666666667	0
bin	-0.33333333333333	0
bin	-0.3	0
bin	-0.26666666666667	0
bin	-0.23333333333333	0
bin	-0.2	0
bin	-0.16666666666667	0
bin	-0.13333333333333	0
bin	-0.1	0
bin	-0.066666666666667	0
bin	-0.033333333333333	0
bin	0	1
bin	0.033333333333333	0
bin	0.066666666666667	0
bin	0.1	0
bin	0.13333333333333	0
bin	0.16666666666667	0
bin	0.2	0
bin	0.23333333333333	0
bin	0.26666666666667	0
bin	0.3	0
bin	0.33333333333333	0
bin	0.36666666666667	0
bin	0.4	0
bin	0.43333333333333	0
bin	0.46666666666667	0
bin	0.5	0
scalar SemiDecentralized.host[11].wlan[0].radio 	bitrate:min 	54000000
attr interpolationmode  sample-hold
attr title  "tx bitrate, min"
attr unit  bps
scalar SemiDecentralized.host[11].wlan[0].radio 	bitrate:max 	54000000
attr interpolationmode  sample-hold
attr title  "tx bitrate, max"
attr unit  bps
scalar SemiDecentralized.host[11].wlan[0].radio 	bitrate:timeavg 	54000000
attr interpolationmode  sample-hold
attr title  "tx bitrate, timeavg"
attr unit  bps
scalar SemiDecentralized.host[11].udpApp[0] 	"packets sent" 	7
scalar SemiDecentralized.host[11].udpApp[0] 	"packets received" 	0
statistic SemiDecentralized.host[11].udpApp[0] 	rcvdPkLifetime:stats
field count 0
field mean -nan
field stddev -nan
field sum 0
field sqrsum 0
field min -nan
field max -nan
attr interpolationmode  none
attr source  messageAge(rcvdPk)
attr title  "received packet lifetime, stats"
attr unit  s
scalar SemiDecentralized.host[11].udp 	droppedPkBadChecksum:count 	0
attr interpolationmode  none
attr title  "packets dropped (checksum error), count"
scalar SemiDecentralized.host[11].udp 	droppedPkWrongPort:count 	0
attr interpolationmode  none
attr title  "packets dropped (wrong port), count"
scalar SemiDecentralized.host[11].udp 	passedUpPk:count 	0
attr interpolationmode  none
attr title  "packets passed up, count"
scalar SemiDecentralized.host[11].udp 	rcvdPk:count 	0
attr interpolationmode  none
attr source  rcvdPk
attr title  "packets received, count"
scalar SemiDecentralized.host[11].udp 	rcvdPk:sum(packetBytes) 	0
attr interpolationmode  none
attr source  rcvdPk
attr title  "packets received, sum(packetBytes)"
scalar SemiDecentralized.host[11].udp 	sentPk:count 	7
attr interpolationmode  none
attr source  sentPk
attr title  "packets sent, count"
scalar SemiDecentralized.host[11].udp 	sentPk:sum(packetBytes) 	3640
attr interpolationmode  none
attr source  sentPk
attr title  "packets sent, sum(packetBytes)"
statistic SemiDecentralized.host[11].aodv 	NumSentAODVPackets
field count 17
field mean 9
field stddev 5.049752469181
field sum 153
field sqrsum 1785
field min 1
field max 17
statistic SemiDecentralized.host[11].aodv 	NumReceivedAODVPackets
field count 7
field mean 4
field stddev 2.1602468994693
field sum 28
field sqrsum 140
field min 1
field max 7
scalar SemiDecentralized.host[11].aodv 	"Number of LinkBreaks" 	0
scalar SemiDecentralized.host[11].aodv 	RERRSentNow 	0
scalar SemiDecentralized.host[11].rsmgmnt 	RREQSent:count 	7
scalar SemiDecentralized.host[11].rsmgmnt 	RREPSent:count 	7
scalar SemiDecentralized.host[12].wlan[0].mac 	"number of receiveunsigned d packets" 	5
scalar SemiDecentralized.host[12].wlan[0].mac 	"number of collisions" 	6
scalar SemiDecentralized.host[12].wlan[0].mac 	"number of internal collisions" 	0
scalar SemiDecentralized.host[12].wlan[0].mac 	"number of retry for AC 0" 	0
scalar SemiDecentralized.host[12].wlan[0].mac 	"sent and received bits" 	65168
scalar SemiDecentralized.host[12].wlan[0].mac 	"sent packet within AC 0" 	1
scalar SemiDecentralized.host[12].wlan[0].mac 	"sent in TXOP " 	0
scalar SemiDecentralized.host[12].wlan[0].mac 	"sentWithoutRetry AC 0" 	1
scalar SemiDecentralized.host[12].wlan[0].mac 	"numGivenUp AC 0" 	0
scalar SemiDecentralized.host[12].wlan[0].mac 	"numDropped AC 0" 	0
scalar SemiDecentralized.host[12].wlan[0].radio 	lossRate:min 	0
attr interpolationmode  backward-sample-hold
attr title  "packet loss rate, min"
scalar SemiDecentralized.host[12].wlan[0].radio 	lossRate:max 	0.02
attr interpolationmode  backward-sample-hold
attr title  "packet loss rate, max"
scalar SemiDecentralized.host[12].wlan[0].radio 	lossRate:timeavg 	0.0037747984264524
attr interpolationmode  backward-sample-hold
attr title  "packet loss rate, timeavg"
statistic SemiDecentralized.host[12].wlan[0].radio 	channelNo:histogram
field count 1
field mean 0
field stddev -nan
field sum 0
field sqrsum 0
field min 0
field max 0
attr interpolationmode  sample-hold
attr title  "channel no, histogram"
bin	-INF	0
bin	-0.5	0
bin	-0.46666666666667	0
bin	-0.43333333333333	0
bin	-0.4	0
bin	-0.36666666666667	0
bin	-0.33333333333333	0
bin	-0.3	0
bin	-0.26666666666667	0
bin	-0.23333333333333	0
bin	-0.2	0
bin	-0.16666666666667	0
bin	-0.13333333333333	0
bin	-0.1	0
bin	-0.066666666666667	0
bin	-0.033333333333333	0
bin	0	1
bin	0.033333333333333	0
bin	0.066666666666667	0
bin	0.1	0
bin	0.13333333333333	0
bin	0.16666666666667	0
bin	0.2	0
bin	0.23333333333333	0
bin	0.26666666666667	0
bin	0.3	0
bin	0.33333333333333	0
bin	0.36666666666667	0
bin	0.4	0
bin	0.43333333333333	0
bin	0.46666666666667	0
bin	0.5	0
scalar SemiDecentralized.host[12].wlan[0].radio 	bitrate:min 	54000000
attr interpolationmode  sample-hold
attr title  "tx bitrate, min"
attr unit  bps
scalar SemiDecentralized.host[12].wlan[0].radio 	bitrate:max 	54000000
attr interpolationmode  sample-hold
attr title  "tx bitrate, max"
attr unit  bps
scalar SemiDecentralized.host[12].wlan[0].radio 	bitrate:timeavg 	54000000
attr interpolationmode  sample-hold
attr title  "tx bitrate, timeavg"
attr unit  bps
statistic SemiDecentralized.host[12].udpApp[0] 	endToEndDelay:histogram
field count 4
field mean 0.005731463522
field stddev 0.0017704892930573
field sum 0.022925854088
field sqrsum 0.00014080259342656
field min 0.003098290198
field max 0.006828768406
attr interpolationmode  none
attr source  messageAge(rcvdPk)
attr title  "end-to-end delay, histogram"
attr unit  s
bin	-INF	0
bin	0.001233051094	0
bin	0.0014817496412	0
bin	0.0017304481884	0
bin	0.0019791467356	0
bin	0.0022278452828	0
bin	0.00247654383	0
bin	0.0027252423772	0
bin	0.0029739409244	1
bin	0.0032226394716	0
bin	0.0034713380188	0
bin	0.003720036566	0
bin	0.0039687351132	0
bin	0.0042174336604	0
bin	0.0044661322076	0
bin	0.0047148307548	0
bin	0.004963529302	0
bin	0.0052122278492	0
bin	0.0054609263964	0
bin	0.0057096249436	0
bin	0.0059583234908	0
bin	0.006207022038	1
bin	0.0064557205852	0
bin	0.0067044191324	2
bin	0.0069531176796	0
bin	0.0072018162268	0
bin	0.007450514774	0
bin	0.0076992133212	0
bin	0.0079479118684	0
bin	0.0081966104156	0
bin	0.0084453089628	0
bin	0.00869400751	0
scalar SemiDecentralized.host[12].udp 	droppedPkBadChecksum:count 	0
attr interpolationmode  none
attr title  "packets dropped (checksum error), count"
scalar SemiDecentralized.host[12].udp 	droppedPkWrongPort:count 	0
attr interpolationmode  none
attr title  "packets dropped (wrong port), count"
scalar SemiDecentralized.host[12].udp 	passedUpPk:count 	4
attr interpolationmode  none
attr title  "packets passed up, count"
scalar SemiDecentralized.host[12].udp 	rcvdPk:count 	4
attr interpolationmode  none
attr source  rcvdPk
attr title  "packets received, count"
scalar SemiDecentralized.host[12].udp 	rcvdPk:sum(packetBytes) 	2080
attr interpolationmode  none
attr source  rcvdPk
attr title  "packets received, sum(packetBytes)"
scalar SemiDecentralized.host[12].udp 	sentPk:count 	0
attr interpolationmode  none
attr source  sentPk
attr title  "packets sent, count"
scalar SemiDecentralized.host[12].udp 	sentPk:sum(packetBytes) 	0
attr interpolationmode  none
attr source  sentPk
attr title  "packets sent, sum(packetBytes)"
statistic SemiDecentralized.host[12].aodv 	NumSentAODVPackets
field count 1
field mean 1
field stddev -nan
field sum 1
field sqrsum 1
field min 1
field max 1
statistic SemiDecentralized.host[12].aodv 	NumReceivedAODVPackets
field count 0
field mean -nan
field stddev -nan
field sum 0
field sqrsum 0
field min -nan
field max -nan
scalar SemiDecentralized.host[12].aodv 	"Number of LinkBreaks" 	0
scalar SemiDecentralized.host[12].aodv 	RERRSentNow 	0
scalar SemiDecentralized.host[12].rsmgmnt 	RREQSent:count 	0
scalar SemiDecentralized.host[12].rsmgmnt 	RREPSent:count 	0
scalar SemiDecentralized.host[13].wlan[0].mac 	"number of receiveunsigned d packets" 	5
scalar SemiDecentralized.host[13].wlan[0].mac 	"number of collisions" 	14
scalar SemiDecentralized.host[13].wlan[0].mac 	"number of internal collisions" 	0
scalar SemiDecentralized.host[13].wlan[0].mac 	"number of retry for AC 0" 	1
scalar SemiDecentralized.host[13].wlan[0].mac 	"sent and received bits" 	116880
scalar SemiDecentralized.host[13].wlan[0].mac 	"sent packet within AC 0" 	12
scalar SemiDecentralized.host[13].wlan[0].mac 	"sent in TXOP " 	0
scalar SemiDecentralized.host[13].wlan[0].mac 	"sentWithoutRetry AC 0" 	11
scalar SemiDecentralized.host[13].wlan[0].mac 	"numGivenUp AC 0" 	0
scalar SemiDecentralized.host[13].wlan[0].mac 	"numDropped AC 0" 	0
scalar SemiDecentralized.host[13].wlan[0].radio 	lossRate:min 	0
attr interpolationmode  backward-sample-hold
attr title  "packet loss rate, min"
scalar SemiDecentralized.host[13].wlan[0].radio 	lossRate:max 	0.06
attr interpolationmode  backward-sample-hold
attr title  "packet loss rate, max"
scalar SemiDecentralized.host[13].wlan[0].radio 	lossRate:timeavg 	0.0072182727802458
attr interpolationmode  backward-sample-hold
attr title  "packet loss rate, timeavg"
statistic SemiDecentralized.host[13].wlan[0].radio 	channelNo:histogram
field count 1
field mean 0
field stddev -nan
field sum 0
field sqrsum 0
field min 0
field max 0
attr interpolationmode  sample-hold
attr title  "channel no, histogram"
bin	-INF	0
bin	-0.5	0
bin	-0.46666666666667	0
bin	-0.43333333333333	0
bin	-0.4	0
bin	-0.36666666666667	0
bin	-0.33333333333333	0
bin	-0.3	0
bin	-0.26666666666667	0
bin	-0.23333333333333	0
bin	-0.2	0
bin	-0.16666666666667	0
bin	-0.13333333333333	0
bin	-0.1	0
bin	-0.066666666666667	0
bin	-0.033333333333333	0
bin	0	1
bin	0.033333333333333	0
bin	0.066666666666667	0
bin	0.1	0
bin	0.13333333333333	0
bin	0.16666666666667	0
bin	0.2	0
bin	0.23333333333333	0
bin	0.26666666666667	0
bin	0.3	0
bin	0.33333333333333	0
bin	0.36666666666667	0
bin	0.4	0
bin	0.43333333333333	0
bin	0.46666666666667	0
bin	0.5	0
scalar SemiDecentralized.host[13].wlan[0].radio 	bitrate:min 	54000000
attr interpolationmode  sample-hold
attr title  "tx bitrate, min"
attr unit  bps
scalar SemiDecentralized.host[13].wlan[0].radio 	bitrate:max 	54000000
attr interpolationmode  sample-hold
attr title  "tx bitrate, max"
attr unit  bps
scalar SemiDecentralized.host[13].wlan[0].radio 	bitrate:timeavg 	54000000
attr interpolationmode  sample-hold
attr title  "tx bitrate, timeavg"
attr unit  bps
scalar SemiDecentralized.host[13].udpApp[0] 	"packets sent" 	7
scalar SemiDecentralized.host[13].udpApp[0] 	"packets received" 	0
statistic SemiDecentralized.host[13].udpApp[0] 	rcvdPkLifetime:stats
field count 0
field mean -nan
field stddev -nan
field sum 0
field sqrsum 0
field min -nan
field max -nan
attr interpolationmode  none
attr source  messageAge(rcvdPk)
attr title  "received packet lifetime, stats"
attr unit  s
scalar SemiDecentralized.host[13].udp 	droppedPkBadChecksum:count 	0
attr interpolationmode  none
attr title  "packets dropped (checksum error), count"
scalar SemiDecentralized.host[13].udp 	droppedPkWrongPort:count 	0
attr interpolationmode  none
attr title  "packets dropped (wrong port), count"
scalar SemiDecentralized.host[13].udp 	passedUpPk:count 	0
attr interpolationmode  none
attr title  "packets passed up, count"
scalar SemiDecentralized.host[13].udp 	rcvdPk:count 	0
attr interpolationmode  none
attr source  rcvdPk
attr title  "packets received, count"
scalar SemiDecentralized.host[13].udp 	rcvdPk:sum(packetBytes) 	0
attr interpolationmode  none
attr source  rcvdPk
attr title  "packets received, sum(packetBytes)"
scalar SemiDecentralized.host[13].udp 	sentPk:count 	7
attr interpolationmode  none
attr source  sentPk
attr title  "packets sent, count"
scalar SemiDecentralized.host[13].udp 	sentPk:sum(packetBytes) 	3640
attr interpolationmode  none
attr source  sentPk
attr title  "packets sent, sum(packetBytes)"
statistic SemiDecentralized.host[13].aodv 	NumSentAODVPackets
field count 12
field mean 6.5
field stddev 3.605551275464
field sum 78
field sqrsum 650
field min 1
field max 12
statistic SemiDecentralized.host[13].aodv 	NumReceivedAODVPackets
field count 7
field mean 4
field stddev 2.1602468994693
field sum 28
field sqrsum 140
field min 1
field max 7
scalar SemiDecentralized.host[13].aodv 	"Number of LinkBreaks" 	0
scalar SemiDecentralized.host[13].aodv 	RERRSentNow 	0
scalar SemiDecentralized.host[13].rsmgmnt 	RREQSent:count 	7
scalar SemiDecentralized.host[13].rsmgmnt 	RREPSent:count 	7
scalar SemiDecentralized.host[14].wlan[0].mac 	"number of receiveunsigned d packets" 	7
scalar SemiDecentralized.host[14].wlan[0].mac 	"number of collisions" 	18
scalar SemiDecentralized.host[14].wlan[0].mac 	"number of internal collisions" 	0
scalar SemiDecentralized.host[14].wlan[0].mac 	"number of retry for AC 0" 	0
scalar SemiDecentralized.host[14].wlan[0].mac 	"sent and received bits" 	65168
scalar SemiDecentralized.host[14].wlan[0].mac 	"sent packet within AC 0" 	1
scalar SemiDecentralized.host[14].wlan[0].mac 	"sent in TXOP " 	0
scalar SemiDecentralized.host[14].wlan[0].mac 	"sentWithoutRetry AC 0" 	1
scalar SemiDecentralized.host[14].wlan[0].mac 	"numGivenUp AC 0" 	0
scalar SemiDecentralized.host[14].wlan[0].mac 	"numDropped AC 0" 	0
scalar SemiDecentralized.host[14].wlan[0].radio 	lossRate:min 	0
attr interpolationmode  backward-sample-hold
attr title  "packet loss rate, min"
scalar SemiDecentralized.host[14].wlan[0].radio 	lossRate:max 	0.04
attr interpolationmode  backward-sample-hold
attr title  "packet loss rate, max"
scalar SemiDecentralized.host[14].wlan[0].radio 	lossRate:timeavg 	0.0086260675416516
attr interpolationmode  backward-sample-hold
attr title  "packet loss rate, timeavg"
statistic SemiDecentralized.host[14].wlan[0].radio 	channelNo:histogram
field count 1
field mean 0
field stddev -nan
field sum 0
field sqrsum 0
field min 0
field max 0
attr interpolationmode  sample-hold
attr title  "channel no, histogram"
bin	-INF	0
bin	-0.5	0
bin	-0.46666666666667	0
bin	-0.43333333333333	0
bin	-0.4	0
bin	-0.36666666666667	0
bin	-0.33333333333333	0
bin	-0.3	0
bin	-0.26666666666667	0
bin	-0.23333333333333	0
bin	-0.2	0
bin	-0.16666666666667	0
bin	-0.13333333333333	0
bin	-0.1	0
bin	-0.066666666666667	0
bin	-0.033333333333333	0
bin	0	1
bin	0.033333333333333	0
bin	0.066666666666667	0
bin	0.1	0
bin	0.13333333333333	0
bin	0.16666666666667	0
bin	0.2	0
bin	0.23333333333333	0
bin	0.26666666666667	0
bin	0.3	0
bin	0.33333333333333	0
bin	0.36666666666667	0
bin	0.4	0
bin	0.43333333333333	0
bin	0.46666666666667	0
bin	0.5	0
scalar SemiDecentralized.host[14].wlan[0].radio 	bitrate:min 	54000000
attr interpolationmode  sample-hold
attr title  "tx bitrate, min"
attr unit  bps
scalar SemiDecentralized.host[14].wlan[0].radio 	bitrate:max 	54000000
attr interpolationmode  sample-hold
attr title  "tx bitrate, max"
attr unit  bps
scalar SemiDecentralized.host[14].wlan[0].radio 	bitrate:timeavg 	54000000
attr interpolationmode  sample-hold
attr title  "tx bitrate, timeavg"
attr unit  bps
statistic SemiDecentralized.host[14].udpApp[0] 	endToEndDelay:histogram
field count 6
field mean 0.0033790674636667
field stddev 0.0014877971258544
field sum 0.020274404782
field sqrsum 7.9576282982568e-05
field min 0.001559128277
field max 0.005773550603
attr interpolationmode  none
attr source  messageAge(rcvdPk)
attr title  "end-to-end delay, histogram"
attr unit  s
bin	-INF	0
bin	-0.000548082886	0
bin	-0.0002671213976	0
bin	1.38400908e-05	0
bin	0.0002948015792	0
bin	0.0005757630676	0
bin	0.000856724556	0
bin	0.0011376860444	0
bin	0.0014186475328	1
bin	0.0016996090212	0
bin	0.0019805705096	0
bin	0.002261531998	0
bin	0.0025424934864	2
bin	0.0028234549748	0
bin	0.0031044164632	0
bin	0.0033853779516	1
bin	0.00366633944	0
bin	0.0039473009284	0
bin	0.0042282624168	1
bin	0.0045092239052	0
bin	0.0047901853936	0
bin	0.005071146882	0
bin	0.0053521083704	0
bin	0.0056330698588	1
bin	0.0059140313472	0
bin	0.0061949928356	0
bin	0.006475954324	0
bin	0.0067569158124	0
bin	0.0070378773008	0
bin	0.0073188387892	0
bin	0.0075998002776	0
bin	0.007880761766	0
scalar SemiDecentralized.host[14].udp 	droppedPkBadChecksum:count 	0
attr interpolationmode  none
attr title  "packets dropped (checksum error), count"
scalar SemiDecentralized.host[14].udp 	droppedPkWrongPort:count 	0
attr interpolationmode  none
attr title  "packets dropped (wrong port), count"
scalar SemiDecentralized.host[14].udp 	passedUpPk:count 	6
attr interpolationmode  none
attr title  "packets passed up, count"
scalar SemiDecentralized.host[14].udp 	rcvdPk:count 	6
attr interpolationmode  none
attr source  rcvdPk
attr title  "packets received, count"
scalar SemiDecentralized.host[14].udp 	rcvdPk:sum(packetBytes) 	3120
attr interpolationmode  none
attr source  rcvdPk
attr title  "packets received, sum(packetBytes)"
scalar SemiDecentralized.host[14].udp 	sentPk:count 	0
attr interpolationmode  none
attr source  sentPk
attr title  "packets sent, count"
scalar SemiDecentralized.host[14].udp 	sentPk:sum(packetBytes) 	0
attr interpolationmode  none
attr source  sentPk
attr title  "packets sent, sum(packetBytes)"
statistic SemiDecentralized.host[14].aodv 	NumSentAODVPackets
field count 1
field mean 1
field stddev -nan
field sum 1
field sqrsum 1
field min 1
field max 1
statistic SemiDecentralized.host[14].aodv 	NumReceivedAODVPackets
field count 0
field mean -nan
field stddev -nan
field sum 0
field sqrsum 0
field min -nan
field max -nan
scalar SemiDecentralized.host[14].aodv 	"Number of LinkBreaks" 	0
scalar SemiDecentralized.host[14].aodv 	RERRSentNow 	0
scalar SemiDecentralized.host[14].rsmgmnt 	RREQSent:count 	0
scalar SemiDecentralized.host[14].rsmgmnt 	RREPSent:count 	0
scalar SemiDecentralized.host[15].wlan[0].mac 	"number of receiveunsigned d packets" 	3
scalar SemiDecentralized.host[15].wlan[0].mac 	"number of collisions" 	30
scalar SemiDecentralized.host[15].wlan[0].mac 	"number of internal collisions" 	0
scalar SemiDecentralized.host[15].wlan[0].mac 	"number of retry for AC 0" 	0
scalar SemiDecentralized.host[15].wlan[0].mac 	"sent and received bits" 	107072
scalar SemiDecentralized.host[15].wlan[0].mac 	"sent packet within AC 0" 	10
scalar SemiDecentralized.host[15].wlan[0].mac 	"sent in TXOP " 	0
scalar SemiDecentralized.host[15].wlan[0].mac 	"sentWithoutRetry AC 0" 	10
scalar SemiDecentralized.host[15].wlan[0].mac 	"numGivenUp AC 0" 	0
scalar SemiDecentralized.host[15].wlan[0].mac 	"numDropped AC 0" 	0
scalar SemiDecentralized.host[15].wlan[0].radio 	lossRate:min 	0
attr interpolationmode  backward-sample-hold
attr title  "packet loss rate, min"
scalar SemiDecentralized.host[15].wlan[0].radio 	lossRate:max 	0.06
attr interpolationmode  backward-sample-hold
attr title  "packet loss rate, max"
scalar SemiDecentralized.host[15].wlan[0].radio 	lossRate:timeavg 	0.0099537115306204
attr interpolationmode  backward-sample-hold
attr title  "packet loss rate, timeavg"
statistic SemiDecentralized.host[15].wlan[0].radio 	channelNo:histogram
field count 1
field mean 0
field stddev -nan
field sum 0
field sqrsum 0
field min 0
field max 0
attr interpolationmode  sample-hold
attr title  "channel no, histogram"
bin	-INF	0
bin	-0.5	0
bin	-0.46666666666667	0
bin	-0.43333333333333	0
bin	-0.4	0
bin	-0.36666666666667	0
bin	-0.33333333333333	0
bin	-0.3	0
bin	-0.26666666666667	0
bin	-0.23333333333333	0
bin	-0.2	0
bin	-0.16666666666667	0
bin	-0.13333333333333	0
bin	-0.1	0
bin	-0.066666666666667	0
bin	-0.033333333333333	0
bin	0	1
bin	0.033333333333333	0
bin	0.066666666666667	0
bin	0.1	0
bin	0.13333333333333	0
bin	0.16666666666667	0
bin	0.2	0
bin	0.23333333333333	0
bin	0.26666666666667	0
bin	0.3	0
bin	0.33333333333333	0
bin	0.36666666666667	0
bin	0.4	0
bin	0.43333333333333	0
bin	0.46666666666667	0
bin	0.5	0
scalar SemiDecentralized.host[15].wlan[0].radio 	bitrate:min 	54000000
attr interpolationmode  sample-hold
attr title  "tx bitrate, min"
attr unit  bps
scalar SemiDecentralized.host[15].wlan[0].radio 	bitrate:max 	54000000
attr interpolationmode  sample-hold
attr title  "tx bitrate, max"
attr unit  bps
scalar SemiDecentralized.host[15].wlan[0].radio 	bitrate:timeavg 	54000000
attr interpolationmode  sample-hold
attr title  "tx bitrate, timeavg"
attr unit  bps
scalar SemiDecentralized.host[15].udpApp[0] 	"packets sent" 	7
scalar SemiDecentralized.host[15].udpApp[0] 	"packets received" 	0
statistic SemiDecentralized.host[15].udpApp[0] 	rcvdPkLifetime:stats
field count 0
field mean -nan
field stddev -nan
field sum 0
field sqrsum 0
field min -nan
field max -nan
attr interpolationmode  none
attr source  messageAge(rcvdPk)
attr title  "received packet lifetime, stats"
attr unit  s
scalar SemiDecentralized.host[15].udp 	droppedPkBadChecksum:count 	0
attr interpolationmode  none
attr title  "packets dropped (checksum error), count"
scalar SemiDecentralized.host[15].udp 	droppedPkWrongPort:count 	0
attr interpolationmode  none
attr title  "packets dropped (wrong port), count"
scalar SemiDecentralized.host[15].udp 	passedUpPk:count 	0
attr interpolationmode  none
attr title  "packets passed up, count"
scalar SemiDecentralized.host[15].udp 	rcvdPk:count 	0
attr interpolationmode  none
attr source  rcvdPk
attr title  "packets received, count"
scalar SemiDecentralized.host[15].udp 	rcvdPk:sum(packetBytes) 	0
attr interpolationmode  none
attr source  rcvdPk
attr title  "packets received, sum(packetBytes)"
scalar SemiDecentralized.host[15].udp 	sentPk:count 	7
attr interpolationmode  none
attr source  sentPk
attr title  "packets sent, count"
scalar SemiDecentralized.host[15].udp 	sentPk:sum(packetBytes) 	3640
attr interpolationmode  none
attr source  sentPk
attr title  "packets sent, sum(packetBytes)"
statistic SemiDecentralized.host[15].aodv 	NumSentAODVPackets
field count 10
field mean 5.5
field stddev 3.0276503540975
field sum 55
field sqrsum 385
field min 1
field max 10
statistic SemiDecentralized.host[15].aodv 	NumReceivedAODVPackets
field count 7
field mean 4
field stddev 2.1602468994693
field sum 28
field sqrsum 140
field min 1
field max 7
scalar SemiDecentralized.host[15].aodv 	"Number of LinkBreaks" 	0
scalar SemiDecentralized.host[15].aodv 	RERRSentNow 	0
scalar SemiDecentralized.host[15].rsmgmnt 	RREQSent:count 	7
scalar SemiDecentralized.host[15].rsmgmnt 	RREPSent:count 	7
scalar SemiDecentralized.host[16].wlan[0].mac 	"number of receiveunsigned d packets" 	22
scalar SemiDecentralized.host[16].wlan[0].mac 	"number of collisions" 	32
scalar SemiDecentralized.host[16].wlan[0].mac 	"number of internal collisions" 	0
scalar SemiDecentralized.host[16].wlan[0].mac 	"number of retry for AC 0" 	0
scalar SemiDecentralized.host[16].wlan[0].mac 	"sent and received bits" 	135008
scalar SemiDecentralized.host[16].wlan[0].mac 	"sent packet within AC 0" 	16
scalar SemiDecentralized.host[16].wlan[0].mac 	"sent in TXOP " 	0
scalar SemiDecentralized.host[16].wlan[0].mac 	"sentWithoutRetry AC 0" 	16
scalar SemiDecentralized.host[16].wlan[0].mac 	"numGivenUp AC 0" 	0
scalar SemiDecentralized.host[16].wlan[0].mac 	"numDropped AC 0" 	0
scalar SemiDecentralized.host[16].wlan[0].radio 	lossRate:min 	0
attr interpolationmode  backward-sample-hold
attr title  "packet loss rate, min"
scalar SemiDecentralized.host[16].wlan[0].radio 	lossRate:max 	0.06
attr interpolationmode  backward-sample-hold
attr title  "packet loss rate, max"
scalar SemiDecentralized.host[16].wlan[0].radio 	lossRate:timeavg 	0.0095403894284326
attr interpolationmode  backward-sample-hold
attr title  "packet loss rate, timeavg"
statistic SemiDecentralized.host[16].wlan[0].radio 	channelNo:histogram
field count 1
field mean 0
field stddev -nan
field sum 0
field sqrsum 0
field min 0
field max 0
attr interpolationmode  sample-hold
attr title  "channel no, histogram"
bin	-INF	0
bin	-0.5	0
bin	-0.46666666666667	0
bin	-0.43333333333333	0
bin	-0.4	0
bin	-0.36666666666667	0
bin	-0.33333333333333	0
bin	-0.3	0
bin	-0.26666666666667	0
[...]
scalar SemiDecentralized.host[59].wlan[0].mac 	"number of collisions" 	17
scalar SemiDecentralized.host[59].wlan[0].mac 	"number of internal collisions" 	0
scalar SemiDecentralized.host[59].wlan[0].mac 	"number of retry for AC 0" 	1
scalar SemiDecentralized.host[59].wlan[0].mac 	"sent and received bits" 	107072
scalar SemiDecentralized.host[59].wlan[0].mac 	"sent packet within AC 0" 	10
scalar SemiDecentralized.host[59].wlan[0].mac 	"sent in TXOP " 	0
scalar SemiDecentralized.host[59].wlan[0].mac 	"sentWithoutRetry AC 0" 	9
scalar SemiDecentralized.host[59].wlan[0].mac 	"numGivenUp AC 0" 	0
scalar SemiDecentralized.host[59].wlan[0].mac 	"numDropped AC 0" 	0
scalar SemiDecentralized.host[59].wlan[0].radio 	lossRate:min 	0
attr interpolationmode  backward-sample-hold
attr title  "packet loss rate, min"
scalar SemiDecentralized.host[59].wlan[0].radio 	lossRate:max 	0.06
attr interpolationmode  backward-sample-hold
attr title  "packet loss rate, max"
scalar SemiDecentralized.host[59].wlan[0].radio 	lossRate:timeavg 	0.0061034054998847
attr interpolationmode  backward-sample-hold
attr title  "packet loss rate, timeavg"
statistic SemiDecentralized.host[59].wlan[0].radio 	channelNo:histogram
field count 1
field mean 0
field stddev -nan
field sum 0
field sqrsum 0
field min 0
field max 0
attr interpolationmode  sample-hold
attr title  "channel no, histogram"
bin	-INF	0
bin	-0.5	0
bin	-0.46666666666667	0
bin	-0.43333333333333	0
bin	-0.4	0
bin	-0.36666666666667	0
bin	-0.33333333333333	0
bin	-0.3	0
bin	-0.26666666666667	0
bin	-0.23333333333333	0
bin	-0.2	0
bin	-0.16666666666667	0
bin	-0.13333333333333	0
bin	-0.1	0
bin	-0.066666666666667	0
bin	-0.033333333333333	0
bin	0	1
bin	0.033333333333333	0
bin	0.066666666666667	0
bin	0.1	0
bin	0.13333333333333	0
bin	0.16666666666667	0
bin	0.2	0
bin	0.23333333333333	0
bin	0.26666666666667	0
bin	0.3	0
bin	0.33333333333333	0
bin	0.36666666666667	0
bin	0.4	0
bin	0.43333333333333	0
bin	0.46666666666667	0
bin	0.5	0
scalar SemiDecentralized.host[59].wlan[0].radio 	bitrate:min 	54000000
attr interpolationmode  sample-hold
attr title  "tx bitrate, min"
attr unit  bps
scalar SemiDecentralized.host[59].wlan[0].radio 	bitrate:max 	54000000
attr interpolationmode  sample-hold
attr title  "tx bitrate, max"
attr unit  bps
scalar SemiDecentralized.host[59].wlan[0].radio 	bitrate:timeavg 	54000000
attr interpolationmode  sample-hold
attr title  "tx bitrate, timeavg"
attr unit  bps
scalar SemiDecentralized.host[59].udpApp[0] 	"packets sent" 	7
scalar SemiDecentralized.host[59].udpApp[0] 	"packets received" 	0
statistic SemiDecentralized.host[59].udpApp[0] 	rcvdPkLifetime:stats
field count 0
field mean -nan
field stddev -nan
field sum 0
field sqrsum 0
field min -nan
field max -nan
attr interpolationmode  none
attr source  messageAge(rcvdPk)
attr title  "received packet lifetime, stats"
attr unit  s
scalar SemiDecentralized.host[59].udp 	droppedPkBadChecksum:count 	0
attr interpolationmode  none
attr title  "packets dropped (checksum error), count"
scalar SemiDecentralized.host[59].udp 	droppedPkWrongPort:count 	0
attr interpolationmode  none
attr title  "packets dropped (wrong port), count"
scalar SemiDecentralized.host[59].udp 	passedUpPk:count 	0
attr interpolationmode  none
attr title  "packets passed up, count"
scalar SemiDecentralized.host[59].udp 	rcvdPk:count 	0
attr interpolationmode  none
attr source  rcvdPk
attr title  "packets received, count"
scalar SemiDecentralized.host[59].udp 	rcvdPk:sum(packetBytes) 	0
attr interpolationmode  none
attr source  rcvdPk
attr title  "packets received, sum(packetBytes)"
scalar SemiDecentralized.host[59].udp 	sentPk:count 	7
attr interpolationmode  none
attr source  sentPk
attr title  "packets sent, count"
scalar SemiDecentralized.host[59].udp 	sentPk:sum(packetBytes) 	3640
attr interpolationmode  none
attr source  sentPk
attr title  "packets sent, sum(packetBytes)"
statistic SemiDecentralized.host[59].aodv 	NumSentAODVPackets
field count 10
field mean 5.5
field stddev 3.0276503540975
field sum 55
field sqrsum 385
field min 1
field max 10
statistic SemiDecentralized.host[59].aodv 	NumReceivedAODVPackets
field count 7
field mean 4
field stddev 2.1602468994693
field sum 28
field sqrsum 140
field min 1
field max 7
scalar SemiDecentralized.host[59].aodv 	"Number of LinkBreaks" 	0
scalar SemiDecentralized.host[59].aodv 	RERRSentNow 	0
scalar SemiDecentralized.host[59].rsmgmnt 	RREQSent:count 	7
scalar SemiDecentralized.host[59].rsmgmnt 	RREPSent:count 	7
scalar SemiDecentralized.host[60].wlan[0].mac 	"number of receiveunsigned d packets" 	1
scalar SemiDecentralized.host[60].wlan[0].mac 	"number of collisions" 	10
scalar SemiDecentralized.host[60].wlan[0].mac 	"number of internal collisions" 	0
scalar SemiDecentralized.host[60].wlan[0].mac 	"number of retry for AC 0" 	0
scalar SemiDecentralized.host[60].wlan[0].mac 	"sent and received bits" 	64672
scalar SemiDecentralized.host[60].wlan[0].mac 	"sent packet within AC 0" 	1
scalar SemiDecentralized.host[60].wlan[0].mac 	"sent in TXOP " 	0
scalar SemiDecentralized.host[60].wlan[0].mac 	"sentWithoutRetry AC 0" 	1
scalar SemiDecentralized.host[60].wlan[0].mac 	"numGivenUp AC 0" 	0
scalar SemiDecentralized.host[60].wlan[0].mac 	"numDropped AC 0" 	0
scalar SemiDecentralized.host[60].wlan[0].radio 	lossRate:min 	0
attr interpolationmode  backward-sample-hold
attr title  "packet loss rate, min"
scalar SemiDecentralized.host[60].wlan[0].radio 	lossRate:max 	0.04
attr interpolationmode  backward-sample-hold
attr title  "packet loss rate, max"
scalar SemiDecentralized.host[60].wlan[0].radio 	lossRate:timeavg 	0.004162836679033
attr interpolationmode  backward-sample-hold
attr title  "packet loss rate, timeavg"
statistic SemiDecentralized.host[60].wlan[0].radio 	channelNo:histogram
field count 1
field mean 0
field stddev -nan
field sum 0
field sqrsum 0
field min 0
field max 0
attr interpolationmode  sample-hold
attr title  "channel no, histogram"
bin	-INF	0
bin	-0.5	0
bin	-0.46666666666667	0
bin	-0.43333333333333	0
bin	-0.4	0
bin	-0.36666666666667	0
bin	-0.33333333333333	0
bin	-0.3	0
bin	-0.26666666666667	0
bin	-0.23333333333333	0
bin	-0.2	0
bin	-0.16666666666667	0
bin	-0.13333333333333	0
bin	-0.1	0
bin	-0.066666666666667	0
bin	-0.033333333333333	0
bin	0	1
bin	0.033333333333333	0
bin	0.066666666666667	0
bin	0.1	0
bin	0.13333333333333	0
bin	0.16666666666667	0
bin	0.2	0
bin	0.23333333333333	0
bin	0.26666666666667	0
bin	0.3	0
bin	0.33333333333333	0
bin	0.36666666666667	0
bin	0.4	0
bin	0.43333333333333	0
bin	0.46666666666667	0
bin	0.5	0
scalar SemiDecentralized.host[60].wlan[0].radio 	bitrate:min 	54000000
attr interpolationmode  sample-hold
attr title  "tx bitrate, min"
attr unit  bps
scalar SemiDecentralized.host[60].wlan[0].radio 	bitrate:max 	54000000
attr interpolationmode  sample-hold
attr title  "tx bitrate, max"
attr unit  bps
scalar SemiDecentralized.host[60].wlan[0].radio 	bitrate:timeavg 	54000000
attr interpolationmode  sample-hold
attr title  "tx bitrate, timeavg"
attr unit  bps
statistic SemiDecentralized.host[60].aodv 	NumSentAODVPackets
field count 1
field mean 1
field stddev -nan
field sum 1
field sqrsum 1
field min 1
field max 1
statistic SemiDecentralized.host[60].aodv 	NumReceivedAODVPackets
field count 0
field mean -nan
field stddev -nan
field sum 0
field sqrsum 0
field min -nan
field max -nan
scalar SemiDecentralized.host[60].aodv 	"Number of LinkBreaks" 	0
scalar SemiDecentralized.host[60].aodv 	RERRSentNow 	0
scalar SemiDecentralized.host[60].rsmgmnt 	RREQSent:count 	0
scalar SemiDecentralized.host[60].rsmgmnt 	RREPSent:count 	0
scalar SemiDecentralized.host[61].wlan[0].mac 	"number of receiveunsigned d packets" 	8
scalar SemiDecentralized.host[61].wlan[0].mac 	"number of collisions" 	25
scalar SemiDecentralized.host[61].wlan[0].mac 	"number of internal collisions" 	0
scalar SemiDecentralized.host[61].wlan[0].mac 	"number of retry for AC 0" 	0
scalar SemiDecentralized.host[61].wlan[0].mac 	"sent and received bits" 	87952
scalar SemiDecentralized.host[61].wlan[0].mac 	"sent packet within AC 0" 	6
scalar SemiDecentralized.host[61].wlan[0].mac 	"sent in TXOP " 	0
scalar SemiDecentralized.host[61].wlan[0].mac 	"sentWithoutRetry AC 0" 	6
scalar SemiDecentralized.host[61].wlan[0].mac 	"numGivenUp AC 0" 	0
scalar SemiDecentralized.host[61].wlan[0].mac 	"numDropped AC 0" 	0
scalar SemiDecentralized.host[61].wlan[0].radio 	lossRate:min 	0
attr interpolationmode  backward-sample-hold
attr title  "packet loss rate, min"
scalar SemiDecentralized.host[61].wlan[0].radio 	lossRate:max 	0.06
attr interpolationmode  backward-sample-hold
attr title  "packet loss rate, max"
scalar SemiDecentralized.host[61].wlan[0].radio 	lossRate:timeavg 	0.0061776911727836
attr interpolationmode  backward-sample-hold
attr title  "packet loss rate, timeavg"
statistic SemiDecentralized.host[61].wlan[0].radio 	channelNo:histogram
field count 1
field mean 0
field stddev -nan
field sum 0
field sqrsum 0
field min 0
field max 0
attr interpolationmode  sample-hold
attr title  "channel no, histogram"
bin	-INF	0
bin	-0.5	0
bin	-0.46666666666667	0
bin	-0.43333333333333	0
bin	-0.4	0
bin	-0.36666666666667	0
bin	-0.33333333333333	0
bin	-0.3	0
bin	-0.26666666666667	0
bin	-0.23333333333333	0
bin	-0.2	0
bin	-0.16666666666667	0
bin	-0.13333333333333	0
bin	-0.1	0
bin	-0.066666666666667	0
bin	-0.033333333333333	0
bin	0	1
bin	0.033333333333333	0
bin	0.066666666666667	0
bin	0.1	0
bin	0.13333333333333	0
bin	0.16666666666667	0
bin	0.2	0
bin	0.23333333333333	0
bin	0.26666666666667	0
bin	0.3	0
bin	0.33333333333333	0
bin	0.36666666666667	0
bin	0.4	0
bin	0.43333333333333	0
bin	0.46666666666667	0
bin	0.5	0
scalar SemiDecentralized.host[61].wlan[0].radio 	bitrate:min 	54000000
attr interpolationmode  sample-hold
attr title  "tx bitrate, min"
attr unit  bps
scalar SemiDecentralized.host[61].wlan[0].radio 	bitrate:max 	54000000
attr interpolationmode  sample-hold
attr title  "tx bitrate, max"
attr unit  bps
scalar SemiDecentralized.host[61].wlan[0].radio 	bitrate:timeavg 	54000000
attr interpolationmode  sample-hold
attr title  "tx bitrate, timeavg"
attr unit  bps
statistic SemiDecentralized.host[61].aodv 	NumSentAODVPackets
field count 8
field mean 4.5
field stddev 2.4494897427832
field sum 36
field sqrsum 204
field min 1
field max 8
statistic SemiDecentralized.host[61].aodv 	NumReceivedAODVPackets
field count 0
field mean -nan
field stddev -nan
field sum 0
field sqrsum 0
field min -nan
field max -nan
scalar SemiDecentralized.host[61].aodv 	"Number of LinkBreaks" 	0
scalar SemiDecentralized.host[61].aodv 	RERRSentNow 	0
scalar SemiDecentralized.host[61].rsmgmnt 	RREQSent:count 	0
scalar SemiDecentralized.host[61].rsmgmnt 	RREPSent:count 	0
scalar SemiDecentralized.host[62].wlan[0].mac 	"number of receiveunsigned d packets" 	3
scalar SemiDecentralized.host[62].wlan[0].mac 	"number of collisions" 	11
scalar SemiDecentralized.host[62].wlan[0].mac 	"number of internal collisions" 	0
scalar SemiDecentralized.host[62].wlan[0].mac 	"number of retry for AC 0" 	0
scalar SemiDecentralized.host[62].wlan[0].mac 	"sent and received bits" 	74480
scalar SemiDecentralized.host[62].wlan[0].mac 	"sent packet within AC 0" 	3
scalar SemiDecentralized.host[62].wlan[0].mac 	"sent in TXOP " 	0
scalar SemiDecentralized.host[62].wlan[0].mac 	"sentWithoutRetry AC 0" 	3
scalar SemiDecentralized.host[62].wlan[0].mac 	"numGivenUp AC 0" 	0
scalar SemiDecentralized.host[62].wlan[0].mac 	"numDropped AC 0" 	0
scalar SemiDecentralized.host[62].wlan[0].radio 	lossRate:min 	0
attr interpolationmode  backward-sample-hold
attr title  "packet loss rate, min"
scalar SemiDecentralized.host[62].wlan[0].radio 	lossRate:max 	0.02
attr interpolationmode  backward-sample-hold
attr title  "packet loss rate, max"
scalar SemiDecentralized.host[62].wlan[0].radio 	lossRate:timeavg 	0.0044659569202085
attr interpolationmode  backward-sample-hold
attr title  "packet loss rate, timeavg"
statistic SemiDecentralized.host[62].wlan[0].radio 	channelNo:histogram
field count 1
field mean 0
field stddev -nan
field sum 0
field sqrsum 0
field min 0
field max 0
attr interpolationmode  sample-hold
attr title  "channel no, histogram"
bin	-INF	0
bin	-0.5	0
bin	-0.46666666666667	0
bin	-0.43333333333333	0
bin	-0.4	0
bin	-0.36666666666667	0
bin	-0.33333333333333	0
bin	-0.3	0
bin	-0.26666666666667	0
bin	-0.23333333333333	0
bin	-0.2	0
bin	-0.16666666666667	0
bin	-0.13333333333333	0
bin	-0.1	0
bin	-0.066666666666667	0
bin	-0.033333333333333	0
bin	0	1
bin	0.033333333333333	0
bin	0.066666666666667	0
bin	0.1	0
bin	0.13333333333333	0
bin	0.16666666666667	0
bin	0.2	0
bin	0.23333333333333	0
bin	0.26666666666667	0
bin	0.3	0
bin	0.33333333333333	0
bin	0.36666666666667	0
bin	0.4	0
bin	0.43333333333333	0
bin	0.46666666666667	0
bin	0.5	0
scalar SemiDecentralized.host[62].wlan[0].radio 	bitrate:min 	54000000
attr interpolationmode  sample-hold
attr title  "tx bitrate, min"
attr unit  bps
scalar SemiDecentralized.host[62].wlan[0].radio 	bitrate:max 	54000000
attr interpolationmode  sample-hold
attr title  "tx bitrate, max"
attr unit  bps
scalar SemiDecentralized.host[62].wlan[0].radio 	bitrate:timeavg 	54000000
attr interpolationmode  sample-hold
attr title  "tx bitrate, timeavg"
attr unit  bps
statistic SemiDecentralized.host[62].aodv 	NumSentAODVPackets
field count 3
field mean 2
field stddev 1
field sum 6
field sqrsum 14
field min 1
field max 3
statistic SemiDecentralized.host[62].aodv 	NumReceivedAODVPackets
field count 0
field mean -nan
field stddev -nan
field sum 0
field sqrsum 0
field min -nan
field max -nan
scalar SemiDecentralized.host[62].aodv 	"Number of LinkBreaks" 	0
scalar SemiDecentralized.host[62].aodv 	RERRSentNow 	0
scalar SemiDecentralized.host[62].rsmgmnt 	RREQSent:count 	0
scalar SemiDecentralized.host[62].rsmgmnt 	RREPSent:count 	0
scalar SemiDecentralized.host[63].wlan[0].mac 	"number of receiveunsigned d packets" 	2
scalar SemiDecentralized.host[63].wlan[0].mac 	"number of collisions" 	13
scalar SemiDecentralized.host[63].wlan[0].mac 	"number of internal collisions" 	0
scalar SemiDecentralized.host[63].wlan[0].mac 	"number of retry for AC 0" 	0
scalar SemiDecentralized.host[63].wlan[0].mac 	"sent and received bits" 	69824
scalar SemiDecentralized.host[63].wlan[0].mac 	"sent packet within AC 0" 	2
scalar SemiDecentralized.host[63].wlan[0].mac 	"sent in TXOP " 	0
scalar SemiDecentralized.host[63].wlan[0].mac 	"sentWithoutRetry AC 0" 	2
scalar SemiDecentralized.host[63].wlan[0].mac 	"numGivenUp AC 0" 	0
scalar SemiDecentralized.host[63].wlan[0].mac 	"numDropped AC 0" 	0
scalar SemiDecentralized.host[63].wlan[0].radio 	lossRate:min 	0
attr interpolationmode  backward-sample-hold
attr title  "packet loss rate, min"
scalar SemiDecentralized.host[63].wlan[0].radio 	lossRate:max 	0.04
attr interpolationmode  backward-sample-hold
attr title  "packet loss rate, max"
scalar SemiDecentralized.host[63].wlan[0].radio 	lossRate:timeavg 	0.0053836907110696
attr interpolationmode  backward-sample-hold
attr title  "packet loss rate, timeavg"
statistic SemiDecentralized.host[63].wlan[0].radio 	channelNo:histogram
field count 1
field mean 0
field stddev -nan
field sum 0
field sqrsum 0
field min 0
field max 0
attr interpolationmode  sample-hold
attr title  "channel no, histogram"
bin	-INF	0
bin	-0.5	0
bin	-0.46666666666667	0
bin	-0.43333333333333	0
bin	-0.4	0
bin	-0.36666666666667	0
bin	-0.33333333333333	0
bin	-0.3	0
bin	-0.26666666666667	0
bin	-0.23333333333333	0
bin	-0.2	0
bin	-0.16666666666667	0
bin	-0.13333333333333	0
bin	-0.1	0
bin	-0.066666666666667	0
bin	-0.033333333333333	0
bin	0	1
bin	0.033333333333333	0
bin	0.066666666666667	0
bin	0.1	0
bin	0.13333333333333	0
bin	0.16666666666667	0
bin	0.2	0
bin	0.23333333333333	0
bin	0.26666666666667	0
bin	0.3	0
bin	0.33333333333333	0
bin	0.36666666666667	0
bin	0.4	0
bin	0.43333333333333	0
bin	0.46666666666667	0
bin	0.5	0
scalar SemiDecentralized.host[63].wlan[0].radio 	bitrate:min 	54000000
attr interpolationmode  sample-hold
attr title  "tx bitrate, min"
attr unit  bps
scalar SemiDecentralized.host[63].wlan[0].radio 	bitrate:max 	54000000
attr interpolationmode  sample-hold
attr title  "tx bitrate, max"
attr unit  bps
scalar SemiDecentralized.host[63].wlan[0].radio 	bitrate:timeavg 	54000000
attr interpolationmode  sample-hold
attr title  "tx bitrate, timeavg"
attr unit  bps
statistic SemiDecentralized.host[63].aodv 	NumSentAODVPackets
field count 2
field mean 1.5
field stddev 0.70710678118655
field sum 3
field sqrsum 5
field min 1
field max 2
statistic SemiDecentralized.host[63].aodv 	NumReceivedAODVPackets
field count 0
field mean -nan
field stddev -nan
field sum 0
field sqrsum 0
field min -nan
field max -nan
scalar SemiDecentralized.host[63].aodv 	"Number of LinkBreaks" 	0
scalar SemiDecentralized.host[63].aodv 	RERRSentNow 	0
scalar SemiDecentralized.host[63].rsmgmnt 	RREQSent:count 	0
scalar SemiDecentralized.host[63].rsmgmnt 	RREPSent:count 	0
scalar SemiDecentralized.host[64].wlan[0].mac 	"number of receiveunsigned d packets" 	6
scalar SemiDecentralized.host[64].wlan[0].mac 	"number of collisions" 	16
scalar SemiDecentralized.host[64].wlan[0].mac 	"number of internal collisions" 	0
scalar SemiDecentralized.host[64].wlan[0].mac 	"number of retry for AC 0" 	0
scalar SemiDecentralized.host[64].wlan[0].mac 	"sent and received bits" 	83296
scalar SemiDecentralized.host[64].wlan[0].mac 	"sent packet within AC 0" 	5
scalar SemiDecentralized.host[64].wlan[0].mac 	"sent in TXOP " 	0
scalar SemiDecentralized.host[64].wlan[0].mac 	"sentWithoutRetry AC 0" 	5
scalar SemiDecentralized.host[64].wlan[0].mac 	"numGivenUp AC 0" 	0
scalar SemiDecentralized.host[64].wlan[0].mac 	"numDropped AC 0" 	0
scalar SemiDecentralized.host[64].wlan[0].radio 	lossRate:min 	0
attr interpolationmode  backward-sample-hold
attr title  "packet loss rate, min"
scalar SemiDecentralized.host[64].wlan[0].radio 	lossRate:max 	0.04
attr interpolationmode  backward-sample-hold
attr title  "packet loss rate, max"
scalar SemiDecentralized.host[64].wlan[0].radio 	lossRate:timeavg 	0.0052307712741997
attr interpolationmode  backward-sample-hold
attr title  "packet loss rate, timeavg"
statistic SemiDecentralized.host[64].wlan[0].radio 	channelNo:histogram
field count 1
field mean 0
field stddev -nan
field sum 0
field sqrsum 0
field min 0
field max 0
attr interpolationmode  sample-hold
attr title  "channel no, histogram"
bin	-INF	0
bin	-0.5	0
bin	-0.46666666666667	0
bin	-0.43333333333333	0
bin	-0.4	0
bin	-0.36666666666667	0
bin	-0.33333333333333	0
bin	-0.3	0
bin	-0.26666666666667	0
bin	-0.23333333333333	0
bin	-0.2	0
bin	-0.16666666666667	0
bin	-0.13333333333333	0
bin	-0.1	0
bin	-0.066666666666667	0
bin	-0.033333333333333	0
bin	0	1
bin	0.033333333333333	0
bin	0.066666666666667	0
bin	0.1	0
bin	0.13333333333333	0
bin	0.16666666666667	0
bin	0.2	0
bin	0.23333333333333	0
bin	0.26666666666667	0
bin	0.3	0
bin	0.33333333333333	0
bin	0.36666666666667	0
bin	0.4	0
bin	0.43333333333333	0
bin	0.46666666666667	0
bin	0.5	0
scalar SemiDecentralized.host[64].wlan[0].radio 	bitrate:min 	54000000
attr interpolationmode  sample-hold
attr title  "tx bitrate, min"
attr unit  bps
scalar SemiDecentralized.host[64].wlan[0].radio 	bitrate:max 	54000000
attr interpolationmode  sample-hold
attr title  "tx bitrate, max"
attr unit  bps
scalar SemiDecentralized.host[64].wlan[0].radio 	bitrate:timeavg 	54000000
attr interpolationmode  sample-hold
attr title  "tx bitrate, timeavg"
attr unit  bps
statistic SemiDecentralized.host[64].aodv 	NumSentAODVPackets
field count 6
field mean 3.5
field stddev 1.870828693387
field sum 21
field sqrsum 91
field min 1
field max 6
statistic SemiDecentralized.host[64].aodv 	NumReceivedAODVPackets
field count 0
field mean -nan
field stddev -nan
field sum 0
field sqrsum 0
field min -nan
field max -nan
scalar SemiDecentralized.host[64].aodv 	"Number of LinkBreaks" 	0
scalar SemiDecentralized.host[64].aodv 	RERRSentNow 	0
scalar SemiDecentralized.host[64].rsmgmnt 	RREQSent:count 	0
scalar SemiDecentralized.host[64].rsmgmnt 	RREPSent:count 	0
